@<TRIPOS>MOLECULE
3wcz_NAP_1_ligand
   73    77     1     0     0
SMALL
NO_CHARGES


@<TRIPOS>ATOM
     1 PA          15.5680    11.6480     5.7520 P.3          1 NAP401   0.0000
     2 O1A         16.6840    11.7820     6.7020 O.co2        1 NAP401   0.0000
     3 O2A         14.1790    11.8420     6.1210 O.co2        1 NAP401  -1.0000
     4 O5B         15.8070    12.4150     4.4140 O.3          1 NAP401   0.0000
     5 C5B         17.0100    12.3000     3.7160 C.3          1 NAP401   0.0000
     6 C4B         17.1050    13.1970     2.4910 C.3          1 NAP401   0.0000
     7 O4B         17.2350    14.5690     2.9110 O.3          1 NAP401   0.0000
     8 C3B         18.2170    12.9190     1.5540 C.3          1 NAP401   0.0000
     9 O3B         17.7240    13.1300     0.2530 O.3          1 NAP401   0.0000
    10 C2B         19.2180    13.9020     1.9310 C.3          1 NAP401   0.0000
    11 O2B         20.1320    14.2280     0.9030 O.3          1 NAP401   0.0000
    12 C1B         18.3990    15.1020     2.3270 C.3          1 NAP401   0.0000
    13 N9A         18.9730    15.9900     3.3160 N.pl3        1 NAP401   0.0000
    14 C8A         19.6490    15.6070     4.4190 C.2          1 NAP401   0.0000
    15 N7A         19.9420    16.6380     5.1850 N.2          1 NAP401   0.0000
    16 C5A         19.4510    17.7580     4.5670 C.ar         1 NAP401   0.0000
    17 C6A         19.4560    19.1180     4.8920 C.ar         1 NAP401   0.0000
    18 N6A         20.0660    19.6520     6.0310 N.pl3        1 NAP401   0.0000
    19 N1A         18.8570    19.9470     4.0190 N.ar         1 NAP401   0.0000
    20 C2A         18.2720    19.4840     2.9150 C.ar         1 NAP401   0.0000
    21 N3A         18.2360    18.1840     2.5760 N.ar         1 NAP401   0.0000
    22 C4A         18.8200    17.3180     3.4180 C.ar         1 NAP401   0.0000
    23 O3          15.7110    10.1570     5.1330 O.3          1 NAP401   0.0000
    24 PN          15.2510     8.6660     5.4540 P.3          1 NAP401   0.0000
    25 O1N         16.3570     7.8140     4.9490 O.co2        1 NAP401   0.0000
    26 O2N         13.8800     8.4820     4.9060 O.co2        1 NAP401  -1.0000
    27 O5D         15.1300     8.5430     7.0340 O.3          1 NAP401   0.0000
    28 C5D         16.2360     8.7250     7.8530 C.3          1 NAP401   0.0000
    29 C4D         16.7830     7.4560     8.5200 C.3          1 NAP401   0.0000
    30 O4D         15.8350     6.8900     9.4060 O.3          1 NAP401   0.0000
    31 C3D         17.0930     6.3350     7.5810 C.3          1 NAP401   0.0000
    32 O3D         18.2450     6.5770     6.7990 O.3          1 NAP401   0.0000
    33 C2D         17.1750     5.2100     8.4870 C.3          1 NAP401   0.0000
    34 O2D         18.3650     5.2460     9.2230 O.3          1 NAP401   0.0000
    35 C1D         15.9760     5.4650     9.3740 C.3          1 NAP401   0.0000
    36 N1N         14.6850     4.8780     8.9960 N.ar         1 NAP401   1.0000
    37 C2N         14.1840     3.8430     9.6950 C.ar         1 NAP401   0.0000
    38 C3N         12.9690     3.3060     9.3520 C.ar         1 NAP401   0.0000
    39 C7N         12.4650     2.2020    10.2020 C.2          1 NAP401   0.0000
    40 O7N         11.5156     1.4601     9.8520 O.2          1 NAP401   0.0000
    41 N7N         12.9851     2.1228    11.4446 N.am         1 NAP401   0.0000
    42 C4N         12.2580     3.7670     8.2280 C.ar         1 NAP401   0.0000
    43 C5N         12.7760     4.8560     7.5140 C.ar         1 NAP401   0.0000
    44 C6N         13.9920     5.3770     7.9380 C.ar         1 NAP401   0.0000
    45 P2B         21.7190    14.1180     1.0930 P.3          1 NAP401   0.0000
    46 O1X         22.2660    14.4870    -0.3000 O.co2        1 NAP401   0.0000
    47 O2X         22.1260    15.1160     2.0870 O.co2        1 NAP401  -1.0000
    48 O3X         22.0250    12.6940     1.4850 O.co2        1 NAP401  -1.0000
    49 H5B1        17.1112    11.3506     3.4187 H            1 NAP401   0.0000
    50 H5B2        17.7573    12.5363     4.3370 H            1 NAP401   0.0000
    51 H4B         16.2480    13.1125     1.9826 H            1 NAP401   0.0000
    52 H3B         18.5622    11.9871     1.6655 H            1 NAP401   0.0000
    53 H5          18.2578    13.8482    -0.1933 H            1 NAP401   0.0000
    54 H2B         19.7227    13.5698     2.7278 H            1 NAP401   0.0000
    55 H1B         18.1544    15.6244     1.5102 H            1 NAP401   0.0000
    56 H8A         19.8962    14.6609     4.6284 H            1 NAP401   0.0000
    57 H6A1        20.0309    20.6367     6.2019 H            1 NAP401   0.0000
    58 H6A2        20.5374    19.0493     6.6748 H            1 NAP401   0.0000
    59 H2A         17.8341    20.1424     2.3028 H            1 NAP401   0.0000
    60 H5D1        15.9811     9.3672     8.5760 H            1 NAP401   0.0000
    61 H5D2        16.9678     9.1209     7.2983 H            1 NAP401   0.0000
    62 H4D         17.6093     7.6885     9.0330 H            1 NAP401   0.0000
    63 H3D         16.3121     6.2008     6.9709 H            1 NAP401   0.0000
    64 H16         17.9821     7.0405     5.9528 H            1 NAP401   0.0000
    65 H2D         17.0817     4.3442     7.9954 H            1 NAP401   0.0000
    66 H18         18.2177     4.8204    10.1159 H            1 NAP401   0.0000
    67 H1D         16.2006     5.1539    10.2975 H            1 NAP401   0.0000
    68 H2N         14.6978     3.4649    10.4651 H            1 NAP401   0.0000
    69 H7N1        12.5502     1.5418    12.1325 H            1 NAP401   0.0000
    70 H7N2        13.8054     2.6452    11.6775 H            1 NAP401   0.0000
    71 H4N         11.4047     3.3284     7.9460 H            1 NAP401   0.0000
    72 H5N         12.2896     5.2427     6.7305 H            1 NAP401   0.0000
    73 H6N         14.3757     6.1557     7.4417 H            1 NAP401   0.0000
@<TRIPOS>BOND
     1    1    2      ar
     2    1    3      ar
     3    1    4       1
     4    1   23       1
     5    4    5       1
     6    5    6       1
     7    6    7       1
     8    6    8       1
     9    7   12       1
    10    8    9       1
    11    8   10       1
    12   10   11       1
    13   10   12       1
    14   11   45       1
    15   12   13       1
    16   13   14       1
    17   13   22       1
    18   14   15       2
    19   15   16       1
    20   16   17      ar
    21   16   22      ar
    22   17   18       1
    23   17   19      ar
    24   19   20      ar
    25   20   21      ar
    26   21   22      ar
    27   23   24       1
    28   24   25      ar
    29   24   26      ar
    30   24   27       1
    31   27   28       1
    32   28   29       1
    33   29   30       1
    34   29   31       1
    35   30   35       1
    36   31   32       1
    37   31   33       1
    38   33   34       1
    39   33   35       1
    40   35   36       1
    41   36   37      ar
    42   36   44      ar
    43   37   38      ar
    44   38   39       1
    45   38   42      ar
    46   39   40       2
    47   39   41      am
    48   42   43      ar
    49   43   44      ar
    50   45   46      ar
    51   45   47      ar
    52   45   48      ar
    53   43   72       1
    54    5   49       1
    55    5   50       1
    56    6   51       1
    57    8   52       1
    58    9   53       1
    59   10   54       1
    60   12   55       1
    61   14   56       1
    62   18   57       1
    63   18   58       1
    64   20   59       1
    65   44   73       1
    66   28   60       1
    67   28   61       1
    68   29   62       1
    69   31   63       1
    70   32   64       1
    71   33   65       1
    72   34   66       1
    73   35   67       1
    74   37   68       1
    75   41   69       1
    76   41   70       1
    77   42   71       1
@<TRIPOS>SUBSTRUCTURE
     1 NAP401      1 GROUP             4 A     NAP     0 **** NAP A 401
