@<TRIPOS>MOLECULE
5e58_CPZ_11_ligand
   19    20     1     0     0
SMALL
NO_CHARGES


@<TRIPOS>ATOM
     1 C11         44.4060    83.0450    17.9270 C.ar         1 CPZ502   0.0000
     2 C10         43.8870    84.2870    17.5920 C.ar         1 CPZ502   0.0000
     3 C9          44.2710    84.9030    16.4100 C.ar         1 CPZ502   0.0000
     4 C8          45.1740    84.2770    15.5640 C.ar         1 CPZ502   0.0000
     5 C7          45.6930    83.0350    15.8980 C.ar         1 CPZ502   0.0000
     6 C6          45.3080    82.4190    17.0800 C.ar         1 CPZ502   0.0000
     7 C4          45.8660    81.0840    17.4400 C.2          1 CPZ502   0.0000
     8 C2          45.6050    80.3470    18.5880 C.2          1 CPZ502   0.0000
     9 N1          46.2820    79.1940    18.5730 N.2          1 CPZ502   0.0000
    10 C5          46.9620    79.2110    17.4200 C.2          1 CPZ502   0.0000
    11 N3          46.7310    80.3370    16.7170 N.pl3        1 CPZ502   0.0000
    12 CL          43.6250    86.4510    15.9920 Cl           1 CPZ502   0.0000
    13 H1          44.1297    82.6010    18.7794 H            1 CPZ502   0.0000
    14 H2          43.2361    84.7382    18.2025 H            1 CPZ502   0.0000
    15 H3          45.4512    84.7216    14.7122 H            1 CPZ502   0.0000
    16 H4          46.3440    82.5840    15.2875 H            1 CPZ502   0.0000
    17 H5          44.9947    80.6386    19.3245 H            1 CPZ502   0.0000
    18 H6          47.5687    78.4761    17.1168 H            1 CPZ502   0.0000
    19 H7          47.1245    80.5752    15.8291 H            1 CPZ502   0.0000
@<TRIPOS>BOND
     1    1    2      ar
     2    1    6      ar
     3    2    3      ar
     4    3    4      ar
     5    3   12       1
     6    4    5      ar
     7    5    6      ar
     8    6    7       1
     9    7    8       2
    10    7   11       1
    11    8    9       1
    12    9   10       2
    13   10   11       1
    14    1   13       1
    15    2   14       1
    16    4   15       1
    17    5   16       1
    18    8   17       1
    19   10   18       1
    20   11   19       1
@<TRIPOS>SUBSTRUCTURE
     1 CPZ502      1 GROUP             4 F     CPZ     0 **** CPZ F 502
