@<TRIPOS>MOLECULE
3bem_FMN_1_ligand
   50    52     1     0     0
SMALL
NO_CHARGES


@<TRIPOS>ATOM
     1 N1          11.0670    12.6200    59.6490 N.2          1 FMN300   0.0000
     2 C2          11.5610    13.8560    60.0150 C.2          1 FMN300   0.0000
     3 O2          12.4560    13.9200    60.8690 O.2          1 FMN300   0.0000
     4 N3          11.0540    15.0150    59.4460 N.pl3        1 FMN300   0.0000
     5 C4          10.0340    14.9750    58.5040 C.2          1 FMN300   0.0000
     6 O4           9.7680    16.0370    57.9020 O.2          1 FMN300   0.0000
     7 C4A          9.5220    13.6970    58.1420 C.2          1 FMN300   0.0000
     8 N5           8.4910    13.5780    57.2120 N.2          1 FMN300   0.0000
     9 C5A          8.0770    12.3120    56.8050 C.ar         1 FMN300   0.0000
    10 C6           7.1000    12.1790    55.8040 C.ar         1 FMN300   0.0000
    11 C7           6.6090    10.9180    55.3830 C.ar         1 FMN300   0.0000
    12 C7M          6.0770    10.7850    53.9690 C.3          1 FMN300   0.0000
    13 C8           7.1540     9.7810    55.9680 C.ar         1 FMN300   0.0000
    14 C8M          7.1790     8.5150    55.1720 C.3          1 FMN300   0.0000
    15 C9           8.1340     9.9020    56.9670 C.ar         1 FMN300   0.0000
    16 C9A          8.6170    11.1470    57.4090 C.ar         1 FMN300   0.0000
    17 N10          9.6020    11.2590    58.3840 N.pl3        1 FMN300   0.0000
    18 C10         10.0680    12.5250    58.7150 C.2          1 FMN300   0.0000
    19 C1'         10.0610    10.0360    59.1710 C.3          1 FMN300   0.0000
    20 C2'          8.9430     9.3770    60.0300 C.3          1 FMN300   0.0000
    21 O2'          8.7470    10.0780    61.2540 O.3          1 FMN300   0.0000
    22 C3'          9.3370     7.9100    60.3080 C.3          1 FMN300   0.0000
    23 O3'          9.2940     7.2140    59.0460 O.3          1 FMN300   0.0000
    24 C4'          8.5190     7.2120    61.4190 C.3          1 FMN300   0.0000
    25 O4'          8.6210     7.8770    62.6720 O.3          1 FMN300   0.0000
    26 C5'          8.9780     5.7710    61.7320 C.3          1 FMN300   0.0000
    27 O5'         10.3920     5.6110    61.9260 O.3          1 FMN300   0.0000
    28 P           11.0850     4.3760    61.1620 P.3          1 FMN300   0.0000
    29 O1P         12.5140     4.3490    61.4090 O.co2        1 FMN300   0.0000
    30 O2P         10.5920     3.1400    61.7240 O.co2        1 FMN300  -1.0000
    31 O3P         10.7780     4.6570    59.7530 O.co2        1 FMN300  -1.0000
    32 H1          11.4314    15.8995    59.7202 H            1 FMN300   0.0000
    33 H2           6.7375    13.0051    55.3725 H            1 FMN300   0.0000
    34 H7M1         5.7678     9.8464    53.8161 H            1 FMN300   0.0000
    35 H7M2         5.3100    11.4137    53.8409 H            1 FMN300   0.0000
    36 H7M3         6.8025    11.0072    53.3176 H            1 FMN300   0.0000
    37 H8M1         7.5961     7.7872    55.7163 H            1 FMN300   0.0000
    38 H8M2         6.2443     8.2555    54.9290 H            1 FMN300   0.0000
    39 H8M3         7.7133     8.6558    54.3385 H            1 FMN300   0.0000
    40 H9           8.5031     9.0697    57.3806 H            1 FMN300   0.0000
    41 H1'1        10.8024    10.3153    59.7812 H            1 FMN300   0.0000
    42 H1'2        10.4015     9.3550    58.5227 H            1 FMN300   0.0000
    43 H2'          8.0883     9.3887    59.5111 H            1 FMN300   0.0000
    44 H13          8.4370     9.4391    61.9581 H            1 FMN300   0.0000
    45 H3'         10.2913     7.9151    60.6068 H            1 FMN300   0.0000
    46 H15          9.5443     6.2559    59.1850 H            1 FMN300   0.0000
    47 H4'          7.5577     7.1902    61.1444 H            1 FMN300   0.0000
    48 H17          9.3941     7.5043    63.1852 H            1 FMN300   0.0000
    49 H5'1         8.7016     5.1854    60.9700 H            1 FMN300   0.0000
    50 H5'2         8.5150     5.4727    62.5667 H            1 FMN300   0.0000
@<TRIPOS>BOND
     1    1    2       1
     2    1   18       2
     3    2    3       2
     4    2    4       1
     5    4    5       1
     6    5    6       2
     7    5    7       1
     8    7    8       2
     9    7   18       1
    10    8    9       1
    11    9   10      ar
    12    9   16      ar
    13   10   11      ar
    14   11   12       1
    15   11   13      ar
    16   13   14       1
    17   13   15      ar
    18   15   16      ar
    19   16   17       1
    20   17   18       1
    21   17   19       1
    22   19   20       1
    23   20   21       1
    24   20   22       1
    25   22   23       1
    26   22   24       1
    27   24   25       1
    28   24   26       1
    29   26   27       1
    30   27   28       1
    31   28   29      ar
    32   28   30      ar
    33   28   31      ar
    34    4   32       1
    35   10   33       1
    36   12   34       1
    37   12   35       1
    38   12   36       1
    39   14   37       1
    40   14   38       1
    41   14   39       1
    42   15   40       1
    43   19   41       1
    44   19   42       1
    45   20   43       1
    46   21   44       1
    47   22   45       1
    48   23   46       1
    49   24   47       1
    50   25   48       1
    51   26   49       1
    52   26   50       1
@<TRIPOS>SUBSTRUCTURE
     1 FMN300      1 GROUP             4 A     FMN     0 **** FMN A 300
