@<TRIPOS>MOLECULE
2jc6_QPP_1_ligand
   38    41     1     0     0
SMALL
NO_CHARGES


@<TRIPOS>ATOM
     1 CAK        -13.1830   -84.9030   -35.5500 C.ar         1 QPP1314   0.0000
     2 CAL        -13.1730   -85.7240   -34.4260 C.ar         1 QPP1314   0.0000
     3 CAM        -13.9210   -86.9100   -34.4060 C.ar         1 QPP1314   0.0000
     4 CAN        -14.6610   -87.2550   -35.5200 C.ar         1 QPP1314   0.0000
     5 CAO        -14.6710   -86.4430   -36.6420 C.ar         1 QPP1314   0.0000
     6 CAP        -13.9200   -85.2630   -36.6880 C.ar         1 QPP1314   0.0000
     7 C2         -13.9330   -84.4230   -37.8200 C.ar         1 QPP1314   0.0000
     8 N1         -12.8910   -83.6030   -38.0760 N.ar         1 QPP1314   0.0000
     9 N3         -15.0080   -84.3910   -38.6370 N.ar         1 QPP1314   0.0000
    10 C4         -15.0710   -83.5590   -39.7080 C.ar         1 QPP1314   0.0000
    11 CAA        -16.1980   -83.5340   -40.5440 C.ar         1 QPP1314   0.0000
    12 CAB        -16.2660   -82.6960   -41.6700 C.ar         1 QPP1314   0.0000
    13 CAC        -15.1790   -81.8650   -41.9750 C.ar         1 QPP1314   0.0000
    14 CAD        -14.0620   -81.8880   -41.1310 C.ar         1 QPP1314   0.0000
    15 C5         -13.9940   -82.7320   -40.0020 C.ar         1 QPP1314   0.0000
    16 C6         -12.8740   -82.7630   -39.1510 C.ar         1 QPP1314   0.0000
    17 NAQ        -11.8320   -81.9320   -39.4080 N.pl3        1 QPP1314   0.0000
    18 CAR        -10.7080   -81.8510   -38.6740 C.2          1 QPP1314   0.0000
    19 CAV        -10.2080   -82.7120   -37.7780 C.2          1 QPP1314   0.0000
    20 CAU         -9.0730   -82.1370   -37.3990 C.2          1 QPP1314   0.0000
    21 CAW         -8.0880   -82.7130   -36.3870 C.3          1 QPP1314   0.0000
    22 NAT         -8.9040   -80.9790   -38.0310 N.pl3        1 QPP1314   0.0000
    23 NAS         -9.8760   -80.8290   -38.7800 N.2          1 QPP1314   0.0000
    24 HAK        -12.6609   -84.0501   -35.5462 H            1 QPP1314   0.0000
    25 HAL        -12.6289   -85.4664   -33.6275 H            1 QPP1314   0.0000
    26 HAM        -13.9187   -87.4975   -33.5968 H            1 QPP1314   0.0000
    27 HAN        -15.1954   -88.1002   -35.5164 H            1 QPP1314   0.0000
    28 HAO        -15.2244   -86.7044   -37.4328 H            1 QPP1314   0.0000
    29 HAA        -16.9737   -84.1287   -40.3327 H            1 QPP1314   0.0000
    30 HAB        -17.0819   -82.6925   -42.2481 H            1 QPP1314   0.0000
    31 HAC        -15.2009   -81.2689   -42.7776 H            1 QPP1314   0.0000
    32 HAD        -13.2885   -81.2878   -41.3345 H            1 QPP1314   0.0000
    33 HAQ        -11.9059   -81.3332   -40.2055 H            1 QPP1314   0.0000
    34 HAV        -10.5966   -83.5800   -37.4687 H            1 QPP1314   0.0000
    35 HAW1        -7.3163   -82.0863   -36.2791 H            1 QPP1314   0.0000
    36 HAW2        -8.5464   -82.8321   -35.5063 H            1 QPP1314   0.0000
    37 HAW3        -7.7555   -83.5983   -36.7121 H            1 QPP1314   0.0000
    38 HAT         -8.1356   -80.3486   -37.9210 H            1 QPP1314   0.0000
@<TRIPOS>BOND
     1    1    2      ar
     2    1    6      ar
     3    2    3      ar
     4    3    4      ar
     5    4    5      ar
     6    5    6      ar
     7    6    7       1
     8    7    8      ar
     9    7    9      ar
    10    8   16      ar
    11    9   10      ar
    12   10   11      ar
    13   10   15      ar
    14   11   12      ar
    15   12   13      ar
    16   13   14      ar
    17   14   15      ar
    18   15   16      ar
    19   16   17       1
    20   17   18       1
    21   18   19       1
    22   18   23       2
    23   19   20       2
    24   20   21       1
    25   20   22       1
    26   22   23       1
    27    1   24       1
    28    2   25       1
    29    3   26       1
    30    4   27       1
    31    5   28       1
    32   11   29       1
    33   12   30       1
    34   13   31       1
    35   14   32       1
    36   17   33       1
    37   19   34       1
    38   21   35       1
    39   21   36       1
    40   21   37       1
    41   22   38       1
@<TRIPOS>SUBSTRUCTURE
     1 QPP1314     1 GROUP             4 A     QPP     0 **** QPP A1314
