@<TRIPOS>MOLECULE
3mq4_Z99_1_ligand
   44    47     1     0     0
SMALL
NO_CHARGES


@<TRIPOS>ATOM
     1 NAA        -17.0840   -39.8000   -20.4590 N.4          1 Z99514   1.0000
     2 OAB        -18.3470   -35.0440   -21.0170 O.co2        1 Z99514   0.0000
     3 OAC        -16.3360   -39.4690   -24.3210 O.co2        1 Z99514   0.0000
     4 OAD        -18.3010   -36.8770   -19.4210 O.co2        1 Z99514  -1.0000
     5 OAE        -15.1860   -40.2280   -22.6140 O.co2        1 Z99514  -1.0000
     6 CAF        -18.0600   -41.9720   -26.9300 C.ar         1 Z99514   0.0000
     7 CAG        -22.7710   -43.2400   -21.9680 C.ar         1 Z99514   0.0000
     8 CAH        -16.9810   -42.4960   -26.1150 C.ar         1 Z99514   0.0000
     9 CAI        -21.7520   -43.7730   -21.0510 C.ar         1 Z99514   0.0000
    10 CAJ        -19.2990   -41.4970   -26.3710 C.ar         1 Z99514   0.0000
    11 CAK        -22.4210   -42.3430   -23.0910 C.ar         1 Z99514   0.0000
    12 CAL        -17.0910   -42.5800   -24.7220 C.ar         1 Z99514   0.0000
    13 CAM        -20.3580   -43.4180   -21.2030 C.ar         1 Z99514   0.0000
    14 CAN        -18.5400   -40.5890   -22.1840 C.3          1 Z99514   0.0000
    15 CAO        -18.3000   -37.2880   -23.0520 C.3          1 Z99514   0.0000
    16 OAP        -20.7030   -41.1010   -24.3670 O.3          1 Z99514   0.0000
    17 CAQ        -18.4440   -36.3070   -20.6000 C.2          1 Z99514   0.0000
    18 CAR        -16.2230   -39.7750   -23.0600 C.2          1 Z99514   0.0000
    19 CAS        -19.4700   -41.5590   -24.9680 C.ar         1 Z99514   0.0000
    20 CAT        -21.0530   -41.9640   -23.2970 C.ar         1 Z99514   0.0000
    21 CAU        -18.3150   -42.1170   -24.1160 C.ar         1 Z99514   0.0000
    22 CAV        -19.9810   -42.5330   -22.3140 C.ar         1 Z99514   0.0000
    23 CAW        -18.4930   -42.1400   -22.5360 C.3          1 Z99514   0.0000
    24 CAX        -18.7940   -37.3650   -21.6360 C.3          1 Z99514   0.0000
    25 CAY        -17.3560   -39.6130   -21.9600 C.3          1 Z99514   0.0000
    26 CAZ        -17.5180   -38.0490   -22.0070 C.3          1 Z99514   0.0000
    27 HAA1       -16.3243   -39.2116   -20.1821 H            1 Z99514   0.0000
    28 HAA2       -17.9022   -39.5550   -19.9389 H            1 Z99514   0.0000
    29 HAF        -17.9384   -41.9392   -27.9220 H            1 Z99514   0.0000
    30 HAG        -23.7287   -43.4914   -21.8282 H            1 Z99514   0.0000
    31 HAH        -16.1393   -42.8043   -26.5582 H            1 Z99514   0.0000
    32 HAI        -22.0266   -44.3890   -20.3126 H            1 Z99514   0.0000
    33 HAJ        -20.0205   -41.1324   -26.9597 H            1 Z99514   0.0000
    34 HAK        -23.1345   -42.0026   -23.7034 H            1 Z99514   0.0000
    35 HAL        -16.3461   -42.9486   -24.1659 H            1 Z99514   0.0000
    36 HAM        -19.6682   -43.7660   -20.5681 H            1 Z99514   0.0000
    37 HAN1       -19.0689   -40.5401   -21.3367 H            1 Z99514   0.0000
    38 HAN2       -19.0656   -40.1786   -22.9292 H            1 Z99514   0.0000
    39 HAO1       -17.9462   -36.4253   -23.4133 H            1 Z99514   0.0000
    40 HAO2       -18.7792   -37.7817   -23.7777 H            1 Z99514   0.0000
    41 HAW        -17.8204   -42.6804   -22.0305 H            1 Z99514   0.0000
    42 HAX        -19.5912   -37.9413   -21.4560 H            1 Z99514   0.0000
    43 HAZ        -16.7044   -37.5602   -21.6921 H            1 Z99514   0.0000
    44 HAA3       -16.8485   -40.7551   -20.2794 H            1 Z99514   0.0000
@<TRIPOS>BOND
     1    1   25       1
     2    2   17      ar
     3    3   18      ar
     4    4   17      ar
     5    5   18      ar
     6    6    8      ar
     7    6   10      ar
     8    7    9      ar
     9    7   11      ar
    10    8   12      ar
    11    9   13      ar
    12   10   19      ar
    13   11   20      ar
    14   12   21      ar
    15   13   22      ar
    16   14   23       1
    17   14   25       1
    18   15   24       1
    19   15   26       1
    20   16   19       1
    21   16   20       1
    22   17   24       1
    23   18   25       1
    24   19   21      ar
    25   20   22      ar
    26   21   23       1
    27   22   23       1
    28   24   26       1
    29   25   26       1
    30    1   27       1
    31    1   28       1
    32    1   44       1
    33   26   43       1
    34    6   29       1
    35    7   30       1
    36    8   31       1
    37    9   32       1
    38   10   33       1
    39   11   34       1
    40   12   35       1
    41   13   36       1
    42   14   37       1
    43   14   38       1
    44   15   39       1
    45   15   40       1
    46   23   41       1
    47   24   42       1
@<TRIPOS>SUBSTRUCTURE
     1 Z99514      1 GROUP             4 A     Z99     0 **** Z99 A 514
