@<TRIPOS>MOLECULE
3iof_IFS_1_ligand
   38    38     1     0     0
SMALL
NO_CHARGES


@<TRIPOS>ATOM
     1 C1           3.5910    48.7810    48.7590 C.ar         1 IFS308   0.0000
     2 O1           5.1610    50.8020    47.7220 O.2          1 IFS308   0.0000
     3 P1           5.1510    49.2880    48.2010 P.3          1 IFS308   0.0000
     4 S1           3.5750    45.3880    46.8610 S.3          1 IFS308  -1.0000
     5 C2           3.2080    47.3310    48.8720 C.ar         1 IFS308   0.0000
     6 C3           1.9250    47.0810    49.3540 C.ar         1 IFS308   0.0000
     7 C4           1.0520    48.1170    49.7120 C.ar         1 IFS308   0.0000
     8 C5           1.4290    49.4490    49.5980 C.ar         1 IFS308   0.0000
     9 C6           2.6950    49.7780    49.1200 C.ar         1 IFS308   0.0000
    10 C7           4.0700    46.1180    48.4740 C.3          1 IFS308   0.0000
    11 C101         6.8870    51.3010    50.3660 C.3          1 IFS308   0.0000
    12 C102         7.4760    46.6310    46.7740 C.3          1 IFS308   0.0000
    13 O21          5.7420    48.2740    47.1100 O.3          1 IFS308   0.0000
    14 O22          6.1360    49.1910    49.4500 O.3          1 IFS308   0.0000
    15 C81          5.9190    50.1240    50.5190 C.3          1 IFS308   0.0000
    16 C82          7.1470    48.1170    46.8510 C.3          1 IFS308   0.0000
    17 C91          6.0580    49.3830    51.8450 C.3          1 IFS308   0.0000
    18 C92          7.4310    48.8370    45.5490 C.3          1 IFS308   0.0000
    19 H1           1.6179    46.1339    49.4473 H            1 IFS308   0.0000
    20 H2           0.1402    47.8931    50.0561 H            1 IFS308   0.0000
    21 H3           0.7904    50.1728    49.8595 H            1 IFS308   0.0000
    22 H4           2.9603    50.7385    49.0363 H            1 IFS308   0.0000
    23 H5           5.0242    46.4109    48.4124 H            1 IFS308   0.0000
    24 H6           3.9814    45.4174    49.1820 H            1 IFS308   0.0000
    25 H7           6.7387    51.9533    51.1093 H            1 IFS308   0.0000
    26 H8           7.8283    50.9651    50.4002 H            1 IFS308   0.0000
    27 H9           6.7261    51.7531    49.4887 H            1 IFS308   0.0000
    28 H10          8.4527    46.5147    46.5939 H            1 IFS308   0.0000
    29 H11          7.2426    46.1925    47.6419 H            1 IFS308   0.0000
    30 H12          6.9485    46.2106    46.0357 H            1 IFS308   0.0000
    31 H13          4.9844    50.4727    50.4487 H            1 IFS308   0.0000
    32 H14          7.6732    48.5391    47.5892 H            1 IFS308   0.0000
    33 H15          5.3996    48.6310    51.8772 H            1 IFS308   0.0000
    34 H16          6.9853    49.0179    51.9272 H            1 IFS308   0.0000
    35 H17          5.8802    50.0143    52.5999 H            1 IFS308   0.0000
    36 H18          7.2010    49.8053    45.6465 H            1 IFS308   0.0000
    37 H19          8.4007    48.7460    45.3224 H            1 IFS308   0.0000
    38 H20          6.8788    48.4351    44.8185 H            1 IFS308   0.0000
@<TRIPOS>BOND
     1    1    3       1
     2    1    5      ar
     3    1    9      ar
     4    2    3       2
     5    3   13       1
     6    3   14       1
     7    4   10       1
     8    5    6      ar
     9    5   10       1
    10    6    7      ar
    11    7    8      ar
    12    8    9      ar
    13   11   15       1
    14   12   16       1
    15   13   16       1
    16   14   15       1
    17   15   17       1
    18   16   18       1
    19   18   38       1
    20    6   19       1
    21    7   20       1
    22    8   21       1
    23    9   22       1
    24   10   23       1
    25   10   24       1
    26   11   25       1
    27   11   26       1
    28   11   27       1
    29   12   28       1
    30   12   29       1
    31   12   30       1
    32   15   31       1
    33   16   32       1
    34   17   33       1
    35   17   34       1
    36   17   35       1
    37   18   36       1
    38   18   37       1
@<TRIPOS>SUBSTRUCTURE
     1 IFS308      1 GROUP             4 A     IFS     0 **** IFS A 308
