@<TRIPOS>MOLECULE
4olf_HFG_1_ligand
   42    44     1     0     0
SMALL
NO_CHARGES


@<TRIPOS>ATOM
     1 O4'         19.1600    52.0680    12.4640 O.2          1 HFG802   0.0000
     2 C21         18.4360    52.4460    13.3250 C.2          1 HFG802   0.0000
     3 C3'         16.9260    52.2230    13.3160 C.3          1 HFG802   0.0000
     4 C2'         16.4560    50.9910    12.5770 C.3          1 HFG802   0.0000
     5 N1'         16.6330    51.1250    11.1960 N.4          1 HFG802   1.0000
     6 C6'         16.4360    49.8610    10.5260 C.3          1 HFG802   0.0000
     7 C5'         15.8660    48.7120    11.3940 C.3          1 HFG802   0.0000
     8 C4'         16.4320    48.5690    12.7250 C.3          1 HFG802   0.0000
     9 C39         17.1600    49.7200    13.1250 C.3          1 HFG802   0.0000
    10 O7'         17.2350    49.7880    14.6390 O.3          1 HFG802   0.0000
    11 C1'         19.0530    53.2930    14.5480 C.3          1 HFG802   0.0000
    12 N3          20.2950    53.9270    13.9660 N.pl3        1 HFG802   0.0000
    13 C4          20.1950    55.0240    13.1320 C.2          1 HFG802   0.0000
    14 O11         19.0770    55.4620    12.8630 O.2          1 HFG802   0.0000
    15 C10         21.3370    55.6140    12.6400 C.ar         1 HFG802   0.0000
    16 C5          21.3020    56.7600    11.7520 C.ar         1 HFG802   0.0000
    17 C2          21.4610    53.4400    14.2910 C.2          1 HFG802   0.0000
    18 N1          22.6030    53.9760    13.8430 N.2          1 HFG802   0.0000
    19 C9          22.5670    55.0580    13.0210 C.ar         1 HFG802   0.0000
    20 C8          23.7920    55.5720    12.5530 C.ar         1 HFG802   0.0000
    21 C7          23.7390    56.6870    11.6860 C.ar         1 HFG802   0.0000
    22 BR1         25.3890    57.4410    10.9580 Br           1 HFG802   0.0000
    23 C6          22.5100    57.2500    11.3150 C.ar         1 HFG802   0.0000
    24 CL1         22.5540    58.6310    10.2490 Cl           1 HFG802   0.0000
    25 H3'1        16.4991    53.0202    12.8891 H            1 HFG802   0.0000
    26 H3'2        16.6196    52.1490    14.2650 H            1 HFG802   0.0000
    27 H2'         15.4758    50.8913    12.7480 H            1 HFG802   0.0000
    28 H1'1        17.5611    51.4503    11.0149 H            1 HFG802   0.0000
    29 H6'1        17.3211    49.5635    10.1682 H            1 HFG802   0.0000
    30 H6'2        15.8035    50.0130     9.7665 H            1 HFG802   0.0000
    31 H5'1        16.0202    47.8543    10.9035 H            1 HFG802   0.0000
    32 H5'2        14.8831    48.8657    11.4957 H            1 HFG802   0.0000
    33 H4'1        17.0475    47.7809    12.7302 H            1 HFG802   0.0000
    34 H4'2        15.6887    48.4158    13.3762 H            1 HFG802   0.0000
    35 H11         18.0863    49.6699    12.7515 H            1 HFG802   0.0000
    36 H7'         18.0854    50.2386    14.9107 H            1 HFG802   0.0000
    37 H13         19.2858    52.6933    15.3136 H            1 HFG802   0.0000
    38 H1'2        18.4084    53.9925    14.8565 H            1 HFG802   0.0000
    39 H15         20.4373    57.1756    11.4699 H            1 HFG802   0.0000
    40 H16         21.5029    52.6424    14.8928 H            1 HFG802   0.0000
    41 H17         24.6642    55.1644    12.8233 H            1 HFG802   0.0000
    42 H18         15.9726    51.7884    10.8442 H            1 HFG802   0.0000
@<TRIPOS>BOND
     1    1    2       2
     2    2    3       1
     3    2   11       1
     4    3    4       1
     5    4    5       1
     6    4    9       1
     7    5    6       1
     8    6    7       1
     9    7    8       1
    10    8    9       1
    11    9   10       1
    12   11   12       1
    13   12   13       1
    14   12   17       1
    15   13   14       2
    16   13   15       1
    17   15   16      ar
    18   15   19      ar
    19   16   23      ar
    20   17   18       2
    21   18   19       1
    22   19   20      ar
    23   20   21      ar
    24   21   22       1
    25   21   23      ar
    26   23   24       1
    27    3   25       1
    28    3   26       1
    29    4   27       1
    30    5   28       1
    31    6   29       1
    32    6   30       1
    33    7   31       1
    34    7   32       1
    35    8   33       1
    36    8   34       1
    37    9   35       1
    38   10   36       1
    39   11   37       1
    40   11   38       1
    41   16   39       1
    42   17   40       1
    43   20   41       1
    44    5   42       1
@<TRIPOS>SUBSTRUCTURE
     1 HFG802      1 GROUP             4 A     HFG     0 **** HFG A 802
