@<TRIPOS>MOLECULE
3iaf_TPP_1_ligand
   42    43     1     0     0
SMALL
NO_CHARGES


@<TRIPOS>ATOM
     1 N1'         39.2110   -27.5420    -5.3240 N.ar         1 TPP571   0.0000
     2 C2'         39.4600   -28.2390    -6.4910 C.ar         1 TPP571   0.0000
     3 CM2         39.8490   -29.6910    -6.4800 C.3          1 TPP571   0.0000
     4 N3'         39.3120   -27.6210    -7.7150 N.ar         1 TPP571   0.0000
     5 C4'         38.9120   -26.3010    -7.7880 C.ar         1 TPP571   0.0000
     6 N4'         38.7770   -25.7250    -8.9800 N.pl3        1 TPP571   0.0000
     7 C5'         38.6690   -25.5810    -6.6180 C.ar         1 TPP571   0.0000
     8 C6'         38.8070   -26.2200    -5.3870 C.ar         1 TPP571   0.0000
     9 C7'         38.2010   -24.1360    -6.6580 C.3          1 TPP571   0.0000
    10 N3          39.2070   -23.0980    -6.6700 N.2          1 TPP571   1.0000
    11 C2          39.4110   -22.2830    -7.7600 C.2          1 TPP571   0.0000
    12 S1          40.5530   -21.1970    -7.5340 S.3          1 TPP571   0.0000
    13 C5          40.8350   -21.6980    -6.0490 C.2          1 TPP571   0.0000
    14 C4          40.0300   -22.7560    -5.6460 C.2          1 TPP571   0.0000
    15 CM4         40.0830   -23.4080    -4.2910 C.3          1 TPP571   0.0000
    16 C6          41.9210   -20.9260    -5.3480 C.3          1 TPP571   0.0000
    17 C7          43.1990   -21.7590    -5.2480 C.3          1 TPP571   0.0000
    18 O7          44.3280   -20.9160    -5.2880 O.3          1 TPP571   0.0000
    19 PA          45.5380   -20.9910    -4.2220 P.3          1 TPP571   0.0000
    20 O1A         46.1760   -22.3550    -4.2270 O.co2        1 TPP571   0.0000
    21 O2A         45.1170   -20.6300    -2.8210 O.co2        1 TPP571  -1.0000
    22 O3A         46.5720   -19.9090    -4.8060 O.3          1 TPP571   0.0000
    23 PB          46.0390   -18.4820    -5.3270 P.3          1 TPP571   0.0000
    24 O1B         45.4230   -17.7500    -4.1630 O.co2        1 TPP571   0.0000
    25 O2B         45.0070   -18.6640    -6.4110 O.co2        1 TPP571  -1.0000
    26 O3B         47.1950   -17.6780    -5.8680 O.co2        1 TPP571  -1.0000
    27 HM21        39.9837   -30.0071    -7.4191 H            1 TPP571   0.0000
    28 HM22        40.6986   -29.8046    -5.9650 H            1 TPP571   0.0000
    29 HM23        39.1235   -30.2272    -6.0486 H            1 TPP571   0.0000
    30 H4'1        38.4879   -24.7698    -9.0439 H            1 TPP571   0.0000
    31 H4'2        38.9646   -26.2473    -9.8118 H            1 TPP571   0.0000
    32 H6'         38.6127   -25.7195    -4.5433 H            1 TPP571   0.0000
    33 H7'1        37.6285   -23.9862    -5.8519 H            1 TPP571   0.0000
    34 H7'2        37.6489   -24.0248    -7.4843 H            1 TPP571   0.0000
    35 H9          38.8924   -22.3649    -8.6111 H            1 TPP571   0.0000
    36 HM41        40.7793   -22.9582    -3.7316 H            1 TPP571   0.0000
    37 HM42        39.1918   -23.3236    -3.8454 H            1 TPP571   0.0000
    38 HM43        40.3132   -24.3755    -4.3954 H            1 TPP571   0.0000
    39 H13         41.6120   -20.6874    -4.4274 H            1 TPP571   0.0000
    40 H14         42.1135   -20.0901    -5.8621 H            1 TPP571   0.0000
    41 H15         43.2372   -22.4003    -6.0144 H            1 TPP571   0.0000
    42 H16         43.1961   -22.2680    -4.3872 H            1 TPP571   0.0000
@<TRIPOS>BOND
     1    1    2      ar
     2    1    8      ar
     3    2    3       1
     4    2    4      ar
     5    4    5      ar
     6    5    6       1
     7    5    7      ar
     8    7    8      ar
     9    7    9       1
    10    9   10       1
    11   10   11       2
    12   10   14       1
    13   11   12       1
    14   12   13       1
    15   13   14       2
    16   13   16       1
    17   14   15       1
    18   16   17       1
    19   17   18       1
    20   18   19       1
    21   19   20      ar
    22   19   21      ar
    23   19   22       1
    24   22   23       1
    25   23   24      ar
    26   23   25      ar
    27   23   26      ar
    28    3   27       1
    29    3   28       1
    30    3   29       1
    31    6   30       1
    32    6   31       1
    33    8   32       1
    34    9   33       1
    35    9   34       1
    36   11   35       1
    37   15   36       1
    38   15   37       1
    39   15   38       1
    40   16   39       1
    41   16   40       1
    42   17   41       1
    43   17   42       1
@<TRIPOS>SUBSTRUCTURE
     1 TPP571      1 GROUP             4 A     TPP     0 **** TPP A 571
