@<TRIPOS>MOLECULE
3v0t_ATR_1_ligand
   42    44     1     0     0
SMALL
NO_CHARGES


@<TRIPOS>ATOM
     1 PB          21.8360     7.0560    21.7660 P.3          1 ATR338   0.0000
     2 O1B         23.0020     7.1190    22.7260 O.co2        1 ATR338   0.0000
     3 O2B         21.7660     5.6840    21.1390 O.co2        1 ATR338  -1.0000
     4 O3B         20.5420     7.3460    22.4860 O.co2        1 ATR338  -1.0000
     5 PA          22.7460     7.9680    19.3380 P.3          1 ATR338   0.0000
     6 O1A         21.8850     8.1620    18.0360 O.co2        1 ATR338   0.0000
     7 O2A         24.2980     8.0310    19.2300 O.co2        1 ATR338  -1.0000
     8 O3A         22.0250     8.1680    20.7070 O.3          1 ATR338   0.0000
     9 O5'         22.7900     9.5530    19.4600 O.3          1 ATR338   0.0000
    10 C5'         21.6440    10.3150    19.7160 C.3          1 ATR338   0.0000
    11 C4'         21.7470    11.6140    20.4710 C.3          1 ATR338   0.0000
    12 O4'         22.6760    12.5220    19.9330 O.3          1 ATR338   0.0000
    13 C3'         20.4540    12.4160    20.5820 C.3          1 ATR338   0.0000
    14 O3'         20.3940    12.9660    21.8500 O.3          1 ATR338   0.0000
    15 C2'         20.5400    13.4530    19.6130 C.3          1 ATR338   0.0000
    16 O2'         19.9190    14.6080    20.0830 O.3          1 ATR338   0.0000
    17 P2'         19.1280    15.5680    19.1230 P.3          1 ATR338   0.0000
    18 O1P         17.7520    15.0020    18.8240 O.co2        1 ATR338   0.0000
    19 O2P         19.8970    15.7530    17.8280 O.co2        1 ATR338  -1.0000
    20 O3P         18.9530    16.9210    19.7970 O.co2        1 ATR338  -1.0000
    21 C1'         21.9980    13.7060    19.5150 C.3          1 ATR338   0.0000
    22 N9          22.4650    14.0790    18.2150 N.pl3        1 ATR338   0.0000
    23 C8          22.2190    13.4770    17.0350 C.2          1 ATR338   0.0000
    24 N7          22.8920    14.1280    16.0690 N.2          1 ATR338   0.0000
    25 C5          23.5800    15.1450    16.6390 C.ar         1 ATR338   0.0000
    26 C6          24.4330    16.1280    16.1350 C.ar         1 ATR338   0.0000
    27 N6          24.7390    16.1980    14.7390 N.pl3        1 ATR338   0.0000
    28 N1          24.9720    17.0090    16.9910 N.ar         1 ATR338   0.0000
    29 C2          24.7040    16.9590    18.3090 C.ar         1 ATR338   0.0000
    30 N3          23.8820    16.0190    18.8000 N.ar         1 ATR338   0.0000
    31 C4          23.3100    15.1060    17.9950 C.ar         1 ATR338   0.0000
    32 H5'1        21.0202     9.7302    20.2345 H            1 ATR338   0.0000
    33 H5'2        21.2381    10.5305    18.8278 H            1 ATR338   0.0000
    34 H4'         22.0450    11.3968    21.4005 H            1 ATR338   0.0000
    35 H3'         19.6593    11.8340    20.4095 H            1 ATR338   0.0000
    36 H5          20.3550    13.9627    21.7795 H            1 ATR338   0.0000
    37 H2'         20.1591    13.1648    18.7344 H            1 ATR338   0.0000
    38 H1'         22.2307    14.4403    20.1526 H            1 ATR338   0.0000
    39 H8          21.6329    12.6782    16.8996 H            1 ATR338   0.0000
    40 H9          25.3525    16.9097    14.3967 H            1 ATR338   0.0000
    41 H10         24.3394    15.5353    14.1057 H            1 ATR338   0.0000
    42 H11         25.1202    17.6267    18.9263 H            1 ATR338   0.0000
@<TRIPOS>BOND
     1    1    2      ar
     2    1    3      ar
     3    1    4      ar
     4    1    8       1
     5    5    6      ar
     6    5    7      ar
     7    5    8       1
     8    5    9       1
     9    9   10       1
    10   10   11       1
    11   11   12       1
    12   11   13       1
    13   12   21       1
    14   13   14       1
    15   13   15       1
    16   15   16       1
    17   15   21       1
    18   16   17       1
    19   17   18      ar
    20   17   19      ar
    21   17   20      ar
    22   21   22       1
    23   22   23       1
    24   22   31       1
    25   23   24       2
    26   24   25       1
    27   25   26      ar
    28   25   31      ar
    29   26   27       1
    30   26   28      ar
    31   28   29      ar
    32   29   30      ar
    33   30   31      ar
    34   29   42       1
    35   27   41       1
    36   27   40       1
    37   10   32       1
    38   10   33       1
    39   11   34       1
    40   13   35       1
    41   14   36       1
    42   15   37       1
    43   23   39       1
    44   21   38       1
@<TRIPOS>SUBSTRUCTURE
     1 ATR338      1 GROUP             4 A     ATR     0 **** ATR A 338
