@<TRIPOS>MOLECULE
3r7f_CP_2_ligand
   10     9     1     0     0
SMALL
NO_CHARGES


@<TRIPOS>ATOM
     1 N          -56.2910     1.5390    13.6280 N.am         1 CP802    0.0000
     2 C          -56.1260     2.8410    13.8760 C.2          1 CP802    0.0000
     3 O          -56.9740     3.6710    13.5730 O.2          1 CP802    0.0000
     4 O4P        -54.8980     3.2860    14.5250 O.3          1 CP802    0.0000
     5 P          -54.6640     4.8220    14.9610 P.3          1 CP802    0.0000
     6 O1P        -54.7070     5.5640    13.6430 O.co2        1 CP802    0.0000
     7 O2P        -55.8170     5.1450    15.8810 O.co2        1 CP802   -1.0000
     8 O3P        -53.3210     4.8120    15.6470 O.co2        1 CP802   -1.0000
     9 H1         -55.5793     0.8864    13.8880 H            1 CP802    0.0000
    10 H2         -57.1262     1.2168    13.1824 H            1 CP802    0.0000
@<TRIPOS>BOND
     1    1    2      am
     2    2    3       2
     3    2    4       1
     4    4    5       1
     5    5    6      ar
     6    5    7      ar
     7    5    8      ar
     8    1    9       1
     9    1   10       1
@<TRIPOS>SUBSTRUCTURE
     1 CP802       1 GROUP             4 B      CP     0 ****  CP B 802
