@<TRIPOS>MOLECULE
1m6e_SAL_1_ligand
   15    15     1     0     0
SMALL
NO_CHARGES


@<TRIPOS>ATOM
     1 C1'         56.3480    27.7170    36.5940 C.2          1 SAL2000   0.0000
     2 O1'         55.9890    27.7950    35.4080 O.co2        1 SAL2000   0.0000
     3 O2'         55.4730    28.1360    37.5270 O.co2        1 SAL2000  -1.0000
     4 C1          57.7280    27.1700    36.9090 C.ar         1 SAL2000   0.0000
     5 C2          58.2730    27.0380    38.2670 C.ar         1 SAL2000   0.0000
     6 C3          59.5750    26.5110    38.4260 C.ar         1 SAL2000   0.0000
     7 C4          60.3960    26.1020    37.3450 C.ar         1 SAL2000   0.0000
     8 C5          59.9270    26.2060    36.0240 C.ar         1 SAL2000   0.0000
     9 C6          58.5300    26.7660    35.7950 C.ar         1 SAL2000   0.0000
    10 O2          57.6190    27.3840    39.4180 O.3          1 SAL2000   0.0000
    11 H1          59.9375    26.4216    39.3537 H            1 SAL2000   0.0000
    12 H2          61.3106    25.7388    37.5226 H            1 SAL2000   0.0000
    13 H3          60.4968    25.9193    35.2538 H            1 SAL2000   0.0000
    14 H4          58.1725    26.8516    34.8650 H            1 SAL2000   0.0000
    15 H5          56.6937    27.7606    39.3734 H            1 SAL2000   0.0000
@<TRIPOS>BOND
     1    1    2      ar
     2    1    3      ar
     3    1    4       1
     4    4    5      ar
     5    4    9      ar
     6    5    6      ar
     7    5   10       1
     8    6    7      ar
     9    7    8      ar
    10    8    9      ar
    11   10   15       1
    12    6   11       1
    13    7   12       1
    14    8   13       1
    15    9   14       1
@<TRIPOS>SUBSTRUCTURE
     1 SAL2000     1 GROUP             4 X     SAL     0 **** SAL X2000
