@<TRIPOS>MOLECULE
3uyk_0CX_1_ligand
   63    66     1     0     0
SMALL
NO_CHARGES


@<TRIPOS>ATOM
     1 O4          -2.7140    61.5170   -20.5700 O.2          1 0CX387   0.0000
     2 C15         -2.1200    60.5650   -20.0540 C.2          1 0CX387   0.0000
     3 C16         -2.7260    59.2190   -20.1940 C.3          1 0CX387   0.0000
     4 C24         -2.3430    58.6300   -21.5610 C.3          1 0CX387   0.0000
     5 C17         -4.2430    59.3360   -20.0870 C.3          1 0CX387   0.0000
     6 O5          -4.6270    57.9820   -20.1480 O.3          1 0CX387   0.0000
     7 C18         -4.8230    59.9800   -18.8280 C.3          1 0CX387   0.0000
     8 C19         -5.0680    58.9900   -17.7110 C.3          1 0CX387   0.0000
     9 C20         -5.0280    59.6420   -16.3370 C.3          1 0CX387   0.0000
    10 C21         -3.5990    59.9190   -15.9190 C.3          1 0CX387   0.0000
    11 C22         -3.5400    59.8960   -14.3880 C.3          1 0CX387   0.0000
    12 C23         -2.3340    60.5630   -13.7640 C.3          1 0CX387   0.0000
    13 O1          -3.2750    61.1700   -16.5760 O.3          1 0CX387   0.0000
    14 C14         -0.8570    60.6340   -19.3200 C.2          1 0CX387   0.0000
    15 C13          0.1030    59.6410   -19.2030 C.2          1 0CX387   0.0000
    16 C12          1.3860    60.1880   -18.5650 C.3          1 0CX387   0.0000
    17 C11          2.5270    60.3440   -19.5630 C.3          1 0CX387   0.0000
    18 C10          3.2950    59.0850   -19.9860 C.3          1 0CX387   0.0000
    19 C9           4.7270    59.6590   -20.3290 C.3          1 0CX387   0.0000
    20 C8           4.7840    61.1400   -19.9120 C.3          1 0CX387   0.0000
    21 O2           5.8010    58.9410   -19.6950 O.3          1 0CX387   0.0000
    22 C7           3.6130    61.2380   -18.9500 C.3          1 0CX387   0.0000
    23 C6           3.1200    62.6380   -18.6580 C.2          1 0CX387   0.0000
    24 C5           1.8730    62.7510   -18.2020 C.2          1 0CX387   0.0000
    25 C4           0.9480    61.5580   -18.0040 C.3          1 0CX387   0.0000
    26 C3          -0.4000    61.8730   -18.6730 C.3          1 0CX387   0.0000
    27 C2          -1.4340    62.4330   -17.7220 C.3          1 0CX387   0.0000
    28 C1          -1.9070    61.2990   -16.8540 C.2          1 0CX387   0.0000
    29 O3          -1.1780    60.4790   -16.3560 O.2          1 0CX387   0.0000
    30 H1          -2.3855    58.6228   -19.4669 H            1 0CX387   0.0000
    31 H2          -2.7503    57.7219   -21.6586 H            1 0CX387   0.0000
    32 H3          -2.6818    59.2272   -22.2880 H            1 0CX387   0.0000
    33 H4          -1.3477    58.5577   -21.6258 H            1 0CX387   0.0000
    34 H5          -4.5937    59.8140   -20.8924 H            1 0CX387   0.0000
    35 H6          -5.6229    57.9149   -20.0869 H            1 0CX387   0.0000
    36 H7          -5.6924    60.4138   -19.0646 H            1 0CX387   0.0000
    37 H8          -4.1817    60.6746   -18.5020 H            1 0CX387   0.0000
    38 H9          -4.3638    58.2810   -17.7504 H            1 0CX387   0.0000
    39 H10         -5.9677    58.5739   -17.8426 H            1 0CX387   0.0000
    40 H11         -5.4525    59.0294   -15.6702 H            1 0CX387   0.0000
    41 H12         -5.5343    60.5038   -16.3675 H            1 0CX387   0.0000
    42 H13         -3.0075    59.1978   -16.2796 H            1 0CX387   0.0000
    43 H14         -3.5472    58.9398   -14.0953 H            1 0CX387   0.0000
    44 H15         -4.3578    60.3564   -14.0428 H            1 0CX387   0.0000
    45 H16         -2.3923    60.4927   -12.7682 H            1 0CX387   0.0000
    46 H17         -1.5010    60.1103   -14.0819 H            1 0CX387   0.0000
    47 H18         -2.3116    61.5269   -14.0294 H            1 0CX387   0.0000
    48 H19         -0.0241    58.6933   -19.4958 H            1 0CX387   0.0000
    49 H20          1.6718    59.5913   -17.8152 H            1 0CX387   0.0000
    50 H21          2.1726    60.7914   -20.3841 H            1 0CX387   0.0000
    51 H22          2.8755    58.6574   -20.7867 H            1 0CX387   0.0000
    52 H23          3.3407    58.4214   -19.2393 H            1 0CX387   0.0000
    53 H24          4.8567    59.6069   -21.3192 H            1 0CX387   0.0000
    54 H25          4.6603    61.7447   -20.6988 H            1 0CX387   0.0000
    55 H26          5.6478    61.3571   -19.4573 H            1 0CX387   0.0000
    56 H27          6.6750    59.3531   -19.9523 H            1 0CX387   0.0000
    57 H28          3.8944    60.8262   -18.0833 H            1 0CX387   0.0000
    58 H29          3.7013    63.4392   -18.8002 H            1 0CX387   0.0000
    59 H30          1.5283    63.6629   -17.9792 H            1 0CX387   0.0000
    60 H31          0.7876    61.4521   -17.0226 H            1 0CX387   0.0000
    61 H32         -0.2381    62.5530   -19.3881 H            1 0CX387   0.0000
    62 H33         -2.2024    62.8126   -18.2373 H            1 0CX387   0.0000
    63 H34         -1.0257    63.1493   -17.1562 H            1 0CX387   0.0000
@<TRIPOS>BOND
     1    1    2       2
     2    2    3       1
     3    2   14       1
     4    3    4       1
     5    3    5       1
     6    5    6       1
     7    5    7       1
     8    7    8       1
     9    8    9       1
    10    9   10       1
    11   10   11       1
    12   10   13       1
    13   11   12       1
    14   13   28       1
    15   14   15       2
    16   14   26       1
    17   15   16       1
    18   16   17       1
    19   16   25       1
    20   17   18       1
    21   17   22       1
    22   18   19       1
    23   19   20       1
    24   19   21       1
    25   20   22       1
    26   22   23       1
    27   23   24       2
    28   24   25       1
    29   25   26       1
    30   26   27       1
    31   27   28       1
    32   28   29       2
    33    3   30       1
    34    4   31       1
    35    4   32       1
    36    4   33       1
    37    5   34       1
    38    6   35       1
    39    7   36       1
    40    7   37       1
    41    8   38       1
    42    8   39       1
    43    9   40       1
    44    9   41       1
    45   10   42       1
    46   11   43       1
    47   11   44       1
    48   12   45       1
    49   12   46       1
    50   12   47       1
    51   15   48       1
    52   16   49       1
    53   17   50       1
    54   18   51       1
    55   18   52       1
    56   19   53       1
    57   20   54       1
    58   20   55       1
    59   21   56       1
    60   22   57       1
    61   23   58       1
    62   24   59       1
    63   25   60       1
    64   26   61       1
    65   27   62       1
    66   27   63       1
@<TRIPOS>SUBSTRUCTURE
     1 0CX387      1 GROUP             4 B     0CX     0 **** 0CX B 387
