@<TRIPOS>MOLECULE
2icy_UPG_1_ligand
   58    60     1     0     0
SMALL
NO_CHARGES


@<TRIPOS>ATOM
     1 N1          11.1710   -21.9850    32.0300 N.pl3        1 UPG901   0.0000
     2 C2          10.9040   -23.3300    32.0430 C.2          1 UPG901   0.0000
     3 N3          11.3700   -23.9810    33.1710 N.pl3        1 UPG901   0.0000
     4 C4          12.0810   -23.4000    34.2430 C.2          1 UPG901   0.0000
     5 C5          12.6410   -22.0980    33.9620 C.2          1 UPG901   0.0000
     6 C6          12.0590   -21.3390    32.9850 C.2          1 UPG901   0.0000
     7 O2          10.2490   -23.9520    31.1650 O.2          1 UPG901   0.0000
     8 O4          12.5200   -24.1490    35.1160 O.2          1 UPG901   0.0000
     9 C1C         10.6110   -21.1700    30.9150 C.3          1 UPG901   0.0000
    10 C2C          9.8310   -20.0320    31.3790 C.3          1 UPG901   0.0000
    11 O2C          8.4520   -20.4660    31.4660 O.3          1 UPG901   0.0000
    12 C3C         10.0850   -18.9780    30.2690 C.3          1 UPG901   0.0000
    13 C4C         11.3660   -19.3780    29.5780 C.3          1 UPG901   0.0000
    14 O4C         11.7600   -20.6500    30.2540 O.3          1 UPG901   0.0000
    15 O3C          8.9790   -19.0930    29.2920 O.3          1 UPG901   0.0000
    16 C5C         12.5730   -18.3900    29.6800 C.3          1 UPG901   0.0000
    17 O5C         12.7020   -18.0190    31.1060 O.3          1 UPG901   0.0000
    18 PA          12.8350   -16.6130    31.5580 P.3          1 UPG901   0.0000
    19 O1A         11.8350   -15.7770    30.9560 O.co2        1 UPG901   0.0000
    20 O2A         13.0330   -16.5040    33.0330 O.co2        1 UPG901  -1.0000
    21 O3A         14.2200   -16.0620    30.8880 O.3          1 UPG901   0.0000
    22 PB          15.7660   -16.3300    31.3560 P.3          1 UPG901   0.0000
    23 O1B         15.9560   -17.7700    31.6300 O.co2        1 UPG901   0.0000
    24 O2B         16.1120   -15.3240    32.3120 O.co2        1 UPG901  -1.0000
    25 O3B         16.4850   -16.1090    29.8140 O.3          1 UPG901   0.0000
    26 C1'         16.2990   -16.8140    28.7130 C.3          1 UPG901   0.0000
    27 C2'         17.7100   -17.2400    28.2360 C.3          1 UPG901   0.0000
    28 C3'         18.5640   -16.0160    27.8850 C.3          1 UPG901   0.0000
    29 C4'         17.7930   -15.2260    26.8050 C.3          1 UPG901   0.0000
    30 C5'         16.3810   -14.7890    27.3360 C.3          1 UPG901   0.0000
    31 C6'         15.5850   -14.2730    26.1160 C.3          1 UPG901   0.0000
    32 O2'         18.3530   -17.9960    29.2940 O.3          1 UPG901   0.0000
    33 O3'         19.8010   -16.5650    27.3170 O.3          1 UPG901   0.0000
    34 O4'         18.5420   -14.0070    26.6460 O.3          1 UPG901   0.0000
    35 O5'         15.6500   -16.0340    27.6690 O.3          1 UPG901   0.0000
    36 O6'         14.3090   -13.7240    26.6320 O.3          1 UPG901   0.0000
    37 H1          11.1846   -24.9617    33.2332 H            1 UPG901   0.0000
    38 H2          13.4341   -21.7606    34.4692 H            1 UPG901   0.0000
    39 H3          12.2403   -20.3572    32.9277 H            1 UPG901   0.0000
    40 H1C         10.0724   -21.7401    30.2946 H            1 UPG901   0.0000
    41 H2C         10.1618   -19.7072    32.2650 H            1 UPG901   0.0000
    42 H6           7.9871   -19.9561    32.1898 H            1 UPG901   0.0000
    43 H3C         10.1455   -18.0543    30.6474 H            1 UPG901   0.0000
    44 H4C         11.1747   -19.5641    28.6143 H            1 UPG901   0.0000
    45 H9           8.6489   -20.0367    29.2717 H            1 UPG901   0.0000
    46 H5C1        12.3988   -17.5754    29.1267 H            1 UPG901   0.0000
    47 H5C2        13.4103   -18.8355    29.3630 H            1 UPG901   0.0000
    48 H1'         15.7520   -17.6254    28.9189 H            1 UPG901   0.0000
    49 H2'         17.6208   -17.8202    27.4265 H            1 UPG901   0.0000
    50 H3'         18.7479   -15.4531    28.6908 H            1 UPG901   0.0000
    51 H4'         17.7264   -15.7362    25.9475 H            1 UPG901   0.0000
    52 H5'         16.4227   -14.1355    28.0917 H            1 UPG901   0.0000
    53 H6'1        15.4039   -15.0243    25.4813 H            1 UPG901   0.0000
    54 H6'2        16.1019   -13.5572    25.6464 H            1 UPG901   0.0000
    55 H19         17.7359   -18.0632    30.0780 H            1 UPG901   0.0000
    56 H20         20.5807   -16.2718    27.8703 H            1 UPG901   0.0000
    57 H21         18.1022   -13.4333    25.9551 H            1 UPG901   0.0000
    58 H6'         13.5432   -14.2228    26.2262 H            1 UPG901   0.0000
@<TRIPOS>BOND
     1    1    2       1
     2    1    6       1
     3    1    9       1
     4    2    3       1
     5    2    7       2
     6    3    4       1
     7    4    5       1
     8    4    8       2
     9    5    6       2
    10    9   10       1
    11    9   14       1
    12   10   11       1
    13   10   12       1
    14   12   13       1
    15   12   15       1
    16   13   14       1
    17   13   16       1
    18   16   17       1
    19   17   18       1
    20   18   19      ar
    21   18   20      ar
    22   18   21       1
    23   21   22       1
    24   22   23      ar
    25   22   24      ar
    26   22   25       1
    27   25   26       1
    28   26   27       1
    29   26   35       1
    30   27   28       1
    31   27   32       1
    32   28   29       1
    33   28   33       1
    34   29   30       1
    35   29   34       1
    36   30   31       1
    37   30   35       1
    38   31   36       1
    39    3   37       1
    40    5   38       1
    41    6   39       1
    42    9   40       1
    43   10   41       1
    44   11   42       1
    45   12   43       1
    46   13   44       1
    47   15   45       1
    48   16   46       1
    49   16   47       1
    50   36   58       1
    51   34   57       1
    52   26   48       1
    53   27   49       1
    54   28   50       1
    55   29   51       1
    56   30   52       1
    57   31   53       1
    58   31   54       1
    59   32   55       1
    60   33   56       1
@<TRIPOS>SUBSTRUCTURE
     1 UPG901      1 GROUP             4 A     UPG     0 **** UPG A 901
