@<TRIPOS>MOLECULE
1h2b_NAJ_2_ligand
   70    74     1     0     0
SMALL
NO_CHARGES


@<TRIPOS>ATOM
     1 PA         105.5700   -21.7100    37.0480 P.3          1 NAJ1361   0.0000
     2 O1A        105.3780   -22.0360    38.5030 O.co2        1 NAJ1361   0.0000
     3 O2A        105.8440   -22.8470    36.0500 O.co2        1 NAJ1361  -1.0000
     4 O5B        106.8200   -20.7460    36.8080 O.3          1 NAJ1361   0.0000
     5 C5B        107.1350   -19.6620    37.6930 C.3          1 NAJ1361   0.0000
     6 C4B        108.6310   -19.4630    37.5170 C.3          1 NAJ1361   0.0000
     7 O4B        108.9760   -18.2530    38.2210 O.3          1 NAJ1361   0.0000
     8 C3B        109.4760   -20.6180    38.0540 C.3          1 NAJ1361   0.0000
     9 O3B        110.4680   -21.0410    37.1040 O.3          1 NAJ1361   0.0000
    10 C2B        110.0600   -19.9410    39.2860 C.3          1 NAJ1361   0.0000
    11 O2B        111.2980   -20.5140    39.7350 O.3          1 NAJ1361   0.0000
    12 C1B        110.2250   -18.4760    38.8610 C.3          1 NAJ1361   0.0000
    13 N9A        110.3350   -17.5200    39.9620 N.pl3        1 NAJ1361   0.0000
    14 C8A        109.7610   -17.5350    41.2410 C.2          1 NAJ1361   0.0000
    15 N7A        110.1240   -16.4060    41.9080 N.2          1 NAJ1361   0.0000
    16 C5A        110.9270   -15.6780    41.0780 C.ar         1 NAJ1361   0.0000
    17 C6A        111.5780   -14.4760    41.2090 C.ar         1 NAJ1361   0.0000
    18 N6A        111.5560   -13.7530    42.3370 N.pl3        1 NAJ1361   0.0000
    19 N1A        112.2640   -13.9830    40.1300 N.ar         1 NAJ1361   0.0000
    20 C2A        112.3820   -14.6880    38.9450 C.ar         1 NAJ1361   0.0000
    21 N3A        111.7590   -15.8820    38.8370 N.ar         1 NAJ1361   0.0000
    22 C4A        111.0490   -16.3670    39.8900 C.ar         1 NAJ1361   0.0000
    23 O3         104.2940   -20.8650    36.6190 O.3          1 NAJ1361   0.0000
    24 PN         103.5360   -20.8100    35.1950 P.3          1 NAJ1361   0.0000
    25 O1N        102.5310   -21.8640    35.1180 O.co2        1 NAJ1361   0.0000
    26 O2N        104.5330   -20.6650    34.1160 O.co2        1 NAJ1361  -1.0000
    27 O5D        102.6920   -19.4610    35.4100 O.3          1 NAJ1361   0.0000
    28 C5D        103.4100   -18.2320    35.4960 C.3          1 NAJ1361   0.0000
    29 C4D        102.4700   -17.1370    35.9740 C.3          1 NAJ1361   0.0000
    30 O4D        101.5800   -16.8170    34.8900 O.3          1 NAJ1361   0.0000
    31 C3D        101.5580   -17.5570    37.1260 C.3          1 NAJ1361   0.0000
    32 O3D        101.2250   -16.3790    37.8830 O.3          1 NAJ1361   0.0000
    33 C2D        100.3020   -18.0620    36.4020 C.3          1 NAJ1361   0.0000
    34 O2D         99.1310   -18.0750    37.1690 O.3          1 NAJ1361   0.0000
    35 C1D        100.2440   -16.9930    35.2960 C.3          1 NAJ1361   0.0000
    36 N1N         99.4130   -17.2510    34.1200 N.ar         1 NAJ1361   1.0000
    37 C2N         98.9430   -16.1500    33.4670 C.ar         1 NAJ1361   0.0000
    38 C3N         98.2030   -16.3040    32.3070 C.ar         1 NAJ1361   0.0000
    39 C7N         97.6400   -15.0960    31.6330 C.2          1 NAJ1361   0.0000
    40 O7N         96.8630   -15.3530    30.5670 O.2          1 NAJ1361   0.0000
    41 N7N         97.9060   -13.8280    31.9610 N.am         1 NAJ1361   0.0000
    42 C4N         97.9290   -17.5930    31.7420 C.ar         1 NAJ1361   0.0000
    43 C5N         98.6000   -18.6770    32.3760 C.ar         1 NAJ1361   0.0000
    44 C6N         99.2940   -18.5030    33.5580 C.ar         1 NAJ1361   0.0000
    45 H5B1       106.9176   -19.9016    38.6392 H            1 NAJ1361   0.0000
    46 H5B2       106.6341   -18.8359    37.4348 H            1 NAJ1361   0.0000
    47 H4B        108.8297   -19.3404    36.5446 H            1 NAJ1361   0.0000
    48 H3B        108.8930   -21.3862    38.3186 H            1 NAJ1361   0.0000
    49 H5         111.0779   -20.2763    36.8961 H            1 NAJ1361   0.0000
    50 H2B        109.3925   -19.9894    40.0290 H            1 NAJ1361   0.0000
    51 H7         112.0620   -20.0509    39.2857 H            1 NAJ1361   0.0000
    52 H1B        110.9828   -18.3715    38.2170 H            1 NAJ1361   0.0000
    53 H8A        109.1772   -18.2606    41.6054 H            1 NAJ1361   0.0000
    54 H6A1       112.0466   -12.8828    42.3828 H            1 NAJ1361   0.0000
    55 H6A2       111.0490   -14.0836    43.1330 H            1 NAJ1361   0.0000
    56 H2A        112.9174   -14.3212    38.1842 H            1 NAJ1361   0.0000
    57 H5D1       103.7722   -17.9924    34.5952 H            1 NAJ1361   0.0000
    58 H5D2       104.1656   -18.3306    36.1436 H            1 NAJ1361   0.0000
    59 H4D        102.9953   -16.3267    36.2337 H            1 NAJ1361   0.0000
    60 H3D        101.9740   -18.2654    37.6961 H            1 NAJ1361   0.0000
    61 H17        102.0622   -15.9641    38.2393 H            1 NAJ1361   0.0000
    62 H2D        100.4682   -18.9647    36.0052 H            1 NAJ1361   0.0000
    63 H19         98.3728   -18.4173    36.6140 H            1 NAJ1361   0.0000
    64 H1D         99.9332   -16.1378    35.7107 H            1 NAJ1361   0.0000
    65 H2N         99.1320   -15.2354    33.8244 H            1 NAJ1361   0.0000
    66 H7N1        97.4809   -13.0800    31.4513 H            1 NAJ1361   0.0000
    67 H7N2        98.5301   -13.6273    32.7161 H            1 NAJ1361   0.0000
    68 H4N         97.3146   -17.7207    30.9634 H            1 NAJ1361   0.0000
    69 H5N         98.5683   -19.5842    31.9566 H            1 NAJ1361   0.0000
    70 H6N         99.7128   -19.2914    34.0086 H            1 NAJ1361   0.0000
@<TRIPOS>BOND
     1    1    2      ar
     2    1    3      ar
     3    1    4       1
     4    1   23       1
     5    4    5       1
     6    5    6       1
     7    6    7       1
     8    6    8       1
     9    7   12       1
    10    8    9       1
    11    8   10       1
    12   10   11       1
    13   10   12       1
    14   12   13       1
    15   13   14       1
    16   13   22       1
    17   14   15       2
    18   15   16       1
    19   16   17      ar
    20   16   22      ar
    21   17   18       1
    22   17   19      ar
    23   19   20      ar
    24   20   21      ar
    25   21   22      ar
    26   23   24       1
    27   24   25      ar
    28   24   26      ar
    29   24   27       1
    30   27   28       1
    31   28   29       1
    32   29   30       1
    33   29   31       1
    34   30   35       1
    35   31   32       1
    36   31   33       1
    37   33   34       1
    38   33   35       1
    39   35   36       1
    40   36   37      ar
    41   36   44      ar
    42   37   38      ar
    43   38   39       1
    44   38   42      ar
    45   39   40       2
    46   39   41      am
    47   42   43      ar
    48   43   44      ar
    49   44   70       1
    50    5   45       1
    51    5   46       1
    52    6   47       1
    53    8   48       1
    54    9   49       1
    55   10   50       1
    56   11   51       1
    57   12   52       1
    58   14   53       1
    59   18   54       1
    60   18   55       1
    61   20   56       1
    62   43   69       1
    63   28   57       1
    64   28   58       1
    65   29   59       1
    66   31   60       1
    67   32   61       1
    68   33   62       1
    69   34   63       1
    70   35   64       1
    71   37   65       1
    72   41   66       1
    73   41   67       1
    74   42   68       1
@<TRIPOS>SUBSTRUCTURE
     1 NAJ1361     1 GROUP             4 B     NAJ     0 **** NAJ B1361
