@<TRIPOS>MOLECULE
1ah4_NAP_1_ligand
   73    77     1     0     0
SMALL
NO_CHARGES


@<TRIPOS>ATOM
     1 PA          59.8230    27.8540    95.0690 P.3          1 NAP318   0.0000
     2 O1A         60.5180    27.9250    96.3810 O.co2        1 NAP318   0.0000
     3 O2A         58.3490    28.0590    95.0380 O.co2        1 NAP318  -1.0000
     4 O5B         60.1380    26.4240    94.4260 O.3          1 NAP318   0.0000
     5 C5B         59.7390    26.0810    93.0920 C.3          1 NAP318   0.0000
     6 C4B         60.3920    24.7390    92.8210 C.3          1 NAP318   0.0000
     7 O4B         59.9470    23.7790    93.7960 O.3          1 NAP318   0.0000
     8 C3B         60.0450    24.1360    91.4830 C.3          1 NAP318   0.0000
     9 O3B         61.1240    23.3230    91.0150 O.3          1 NAP318   0.0000
    10 C2B         58.8250    23.2860    91.7740 C.3          1 NAP318   0.0000
    11 O2B         58.7750    22.2200    90.8210 O.3          1 NAP318   0.0000
    12 C1B         59.1260    22.7750    93.1670 C.3          1 NAP318   0.0000
    13 N9A         57.8990    22.4840    93.9540 N.pl3        1 NAP318   0.0000
    14 C8A         56.7650    23.2040    94.0230 C.2          1 NAP318   0.0000
    15 N7A         55.7990    22.5760    94.7140 N.2          1 NAP318   0.0000
    16 C5A         56.3910    21.4560    95.0720 C.ar         1 NAP318   0.0000
    17 C6A         55.7940    20.4510    95.8190 C.ar         1 NAP318   0.0000
    18 N6A         54.5260    20.5190    96.2040 N.pl3        1 NAP318   0.0000
    19 N1A         56.5630    19.3780    96.0840 N.ar         1 NAP318   0.0000
    20 C2A         57.8280    19.2880    95.6610 C.ar         1 NAP318   0.0000
    21 N3A         58.3960    20.2590    94.9460 N.ar         1 NAP318   0.0000
    22 C4A         57.6920    21.3580    94.6320 C.ar         1 NAP318   0.0000
    23 O3          60.6350    28.7600    94.0290 O.3          1 NAP318   0.0000
    24 PN          60.4160    30.1180    93.2190 P.3          1 NAP318   0.0000
    25 O1N         59.7580    29.7710    91.9340 O.co2        1 NAP318   0.0000
    26 O2N         61.6840    30.8760    93.1650 O.co2        1 NAP318  -1.0000
    27 O5D         59.4400    30.9520    94.2140 O.3          1 NAP318   0.0000
    28 C5D         58.0090    30.9940    94.0820 C.3          1 NAP318   0.0000
    29 C4D         57.5530    32.2420    93.3380 C.3          1 NAP318   0.0000
    30 O4D         58.0610    33.3900    94.0260 O.3          1 NAP318   0.0000
    31 C3D         58.0980    32.4390    91.9350 C.3          1 NAP318   0.0000
    32 O3D         57.4750    31.6580    90.9210 O.3          1 NAP318   0.0000
    33 C2D         57.8170    33.9060    91.7140 C.3          1 NAP318   0.0000
    34 O2D         56.4580    34.0850    91.2680 O.3          1 NAP318   0.0000
    35 C1D         58.0850    34.4930    93.0980 C.3          1 NAP318   0.0000
    36 N1N         59.4280    35.1160    93.1790 N.ar         1 NAP318   1.0000
    37 C2N         59.5520    36.5200    93.2210 C.ar         1 NAP318   0.0000
    38 C3N         60.8280    37.0920    93.2250 C.ar         1 NAP318   0.0000
    39 C7N         61.0730    38.5940    93.3920 C.2          1 NAP318   0.0000
    40 O7N         62.2120    39.0440    93.2480 O.2          1 NAP318   0.0000
    41 N7N         60.0220    39.3550    93.6680 N.am         1 NAP318   0.0000
    42 C4N         61.9430    36.2680    93.1460 C.ar         1 NAP318   0.0000
    43 C5N         61.8310    34.8810    93.1090 C.ar         1 NAP318   0.0000
    44 C6N         60.5700    34.3020    93.1380 C.ar         1 NAP318   0.0000
    45 P2B         57.7470    22.2380    89.5900 P.3          1 NAP318   0.0000
    46 O1X         56.5750    21.5280    90.1350 O.co2        1 NAP318   0.0000
    47 O2X         57.4610    23.6420    89.2280 O.co2        1 NAP318  -1.0000
    48 O3X         58.5030    21.4770    88.5730 O.co2        1 NAP318  -1.0000
    49 H5B1        60.0625    26.7674    92.4407 H            1 NAP318   0.0000
    50 H5B2        58.7437    26.0065    93.0308 H            1 NAP318   0.0000
    51 H4B         61.3848    24.8381    92.8882 H            1 NAP318   0.0000
    52 H3B         59.8273    24.8511    90.8188 H            1 NAP318   0.0000
    53 H5          61.0004    22.3855    91.3403 H            1 NAP318   0.0000
    54 H2B         57.9868    23.8312    91.7574 H            1 NAP318   0.0000
    55 H1B         59.6594    21.9328    93.0878 H            1 NAP318   0.0000
    56 H8A         56.6534    24.1062    93.6064 H            1 NAP318   0.0000
    57 H6A1        54.1263    19.7768    96.7419 H            1 NAP318   0.0000
    58 H6A2        53.9701    21.3124    95.9562 H            1 NAP318   0.0000
    59 H2A         58.3610    18.4725    95.8865 H            1 NAP318   0.0000
    60 H5D1        57.5984    30.9912    94.9938 H            1 NAP318   0.0000
    61 H5D2        57.7055    30.1858    93.5773 H            1 NAP318   0.0000
    62 H4D         56.5538    32.2761    93.3187 H            1 NAP318   0.0000
    63 H3D         59.0849    32.2780    91.9288 H            1 NAP318   0.0000
    64 H16         57.9552    30.7856    90.8300 H            1 NAP318   0.0000
    65 H2D         58.4559    34.2859    91.0450 H            1 NAP318   0.0000
    66 H18         56.1200    34.9739    91.5773 H            1 NAP318   0.0000
    67 H1D         57.3786    35.1602    93.3343 H            1 NAP318   0.0000
    68 H2N         58.7375    37.0995    93.2476 H            1 NAP318   0.0000
    69 H7N1        60.1360    40.3415    93.7853 H            1 NAP318   0.0000
    70 H7N2        59.1157    38.9421    93.7587 H            1 NAP318   0.0000
    71 H4N         62.8523    36.6829    93.1148 H            1 NAP318   0.0000
    72 H5N         62.6495    34.3085    93.0621 H            1 NAP318   0.0000
    73 H6N         60.4756    33.3065    93.1297 H            1 NAP318   0.0000
@<TRIPOS>BOND
     1    1    2      ar
     2    1    3      ar
     3    1    4       1
     4    1   23       1
     5    4    5       1
     6    5    6       1
     7    6    7       1
     8    6    8       1
     9    7   12       1
    10    8    9       1
    11    8   10       1
    12   10   11       1
    13   10   12       1
    14   11   45       1
    15   12   13       1
    16   13   14       1
    17   13   22       1
    18   14   15       2
    19   15   16       1
    20   16   17      ar
    21   16   22      ar
    22   17   18       1
    23   17   19      ar
    24   19   20      ar
    25   20   21      ar
    26   21   22      ar
    27   23   24       1
    28   24   25      ar
    29   24   26      ar
    30   24   27       1
    31   27   28       1
    32   28   29       1
    33   29   30       1
    34   29   31       1
    35   30   35       1
    36   31   32       1
    37   31   33       1
    38   33   34       1
    39   33   35       1
    40   35   36       1
    41   36   37      ar
    42   36   44      ar
    43   37   38      ar
    44   38   39       1
    45   38   42      ar
    46   39   40       2
    47   39   41      am
    48   42   43      ar
    49   43   44      ar
    50   45   46      ar
    51   45   47      ar
    52   45   48      ar
    53   43   72       1
    54    5   49       1
    55    5   50       1
    56    6   51       1
    57    8   52       1
    58    9   53       1
    59   10   54       1
    60   12   55       1
    61   14   56       1
    62   18   57       1
    63   18   58       1
    64   20   59       1
    65   44   73       1
    66   28   60       1
    67   28   61       1
    68   29   62       1
    69   31   63       1
    70   32   64       1
    71   33   65       1
    72   34   66       1
    73   35   67       1
    74   37   68       1
    75   41   69       1
    76   41   70       1
    77   42   71       1
@<TRIPOS>SUBSTRUCTURE
     1 NAP318      1 GROUP             4 A     NAP     0 **** NAP A 318
