@<TRIPOS>MOLECULE
3exh_TPP_1_ligand
   43    44     1     0     0
SMALL
NO_CHARGES


@<TRIPOS>ATOM
     1 N1'        -35.5910    59.8340    18.2730 N.ar         1 TPP1502   1.0000
     2 C2'        -36.3630    60.8080    17.7070 C.ar         1 TPP1502   0.0000
     3 CM2        -36.7100    60.7030    16.2260 C.3          1 TPP1502   0.0000
     4 N3'        -36.7840    61.8670    18.5180 N.ar         1 TPP1502   0.0000
     5 C4'        -36.4650    61.9530    19.8530 C.ar         1 TPP1502   0.0000
     6 N4'        -36.9290    62.9790    20.5490 N.pl3        1 TPP1502   0.0000
     7 C5'        -35.6930    60.9360    20.3950 C.ar         1 TPP1502   0.0000
     8 C6'        -35.2740    59.9100    19.5860 C.ar         1 TPP1502   0.0000
     9 C7'        -35.2610    60.8580    21.8430 C.3          1 TPP1502   0.0000
    10 N3         -34.2330    61.8390    22.0630 N.2          1 TPP1502   1.0000
    11 C2         -34.6120    63.0970    22.5250 C.2          1 TPP1502   0.0000
    12 S1         -33.3330    64.0530    22.7160 S.3          1 TPP1502   0.0000
    13 C5         -32.2600    62.9440    22.1900 C.2          1 TPP1502   0.0000
    14 C4         -32.8600    61.7300    21.8470 C.2          1 TPP1502   0.0000
    15 CM4        -32.0990    60.5320    21.3760 C.3          1 TPP1502   0.0000
    16 C6         -30.8240    63.3900    22.1410 C.3          1 TPP1502   0.0000
    17 C7         -30.7010    64.4200    21.0050 C.3          1 TPP1502   0.0000
    18 O7         -29.5640    65.2280    21.2370 O.3          1 TPP1502   0.0000
    19 PA         -28.9320    66.4240    20.3610 P.3          1 TPP1502   0.0000
    20 O1A        -29.5110    66.5620    18.9650 O.co2        1 TPP1502   0.0000
    21 O2A        -27.4460    66.3520    20.3680 O.co2        1 TPP1502  -1.0000
    22 O3A        -29.5460    67.7490    21.0430 O.3          1 TPP1502   0.0000
    23 PB         -29.2770    68.2870    22.5540 P.3          1 TPP1502   0.0000
    24 O1B        -27.8410    67.9890    22.8620 O.co2        1 TPP1502   0.0000
    25 O2B        -29.4030    69.7950    22.4560 O.co2        1 TPP1502  -1.0000
    26 O3B        -30.2160    67.7140    23.5590 O.co2        1 TPP1502  -1.0000
    27 HM21       -37.2761    61.4833    15.9601 H            1 TPP1502   0.0000
    28 HM22       -35.8685    60.7022    15.6857 H            1 TPP1502   0.0000
    29 HM23       -37.2129    59.8546    16.0608 H            1 TPP1502   0.0000
    30 H4'1       -36.7106    63.0634    21.5212 H            1 TPP1502   0.0000
    31 H4'2       -37.4979    63.6697    20.1026 H            1 TPP1502   0.0000
    32 H6'        -34.7097    59.1869    19.9843 H            1 TPP1502   0.0000
    33 H7'1       -34.9043    59.9449    22.0404 H            1 TPP1502   0.0000
    34 H7'2       -36.0414    61.0470    22.4390 H            1 TPP1502   0.0000
    35 H9         -35.5554    63.3699    22.7132 H            1 TPP1502   0.0000
    36 HM41       -31.1265    60.7571    21.3164 H            1 TPP1502   0.0000
    37 HM42       -32.2280    59.7799    22.0223 H            1 TPP1502   0.0000
    38 HM43       -32.4336    60.2579    20.4744 H            1 TPP1502   0.0000
    39 H13        -30.2290    62.6073    21.9586 H            1 TPP1502   0.0000
    40 H14        -30.5663    63.8089    23.0117 H            1 TPP1502   0.0000
    41 H15        -31.5203    64.9929    20.9818 H            1 TPP1502   0.0000
    42 H16        -30.6017    63.9447    20.1308 H            1 TPP1502   0.0000
    43 H1'        -35.2618    59.0687    17.7199 H            1 TPP1502   0.0000
@<TRIPOS>BOND
     1    1    2      ar
     2    1    8      ar
     3    2    3       1
     4    2    4      ar
     5    4    5      ar
     6    5    6       1
     7    5    7      ar
     8    7    8      ar
     9    7    9       1
    10    9   10       1
    11   10   11       2
    12   10   14       1
    13   11   12       1
    14   12   13       1
    15   13   14       2
    16   13   16       1
    17   14   15       1
    18   16   17       1
    19   17   18       1
    20   18   19       1
    21   19   20      ar
    22   19   21      ar
    23   19   22       1
    24   22   23       1
    25   23   24      ar
    26   23   25      ar
    27   23   26      ar
    28    3   27       1
    29    3   28       1
    30    3   29       1
    31    6   30       1
    32    6   31       1
    33    8   32       1
    34    9   33       1
    35    9   34       1
    36   11   35       1
    37   15   36       1
    38   15   37       1
    39   15   38       1
    40   16   39       1
    41   16   40       1
    42   17   41       1
    43   17   42       1
    44    1   43       1
@<TRIPOS>SUBSTRUCTURE
     1 TPP1502     1 GROUP             4 A     TPP     0 **** TPP A1502
