@<TRIPOS>MOLECULE
4ige_CHJ_2_ligand
   32    34     1     0     0
SMALL
NO_CHARGES


@<TRIPOS>ATOM
     1 C1          10.5750   100.4000    25.1840 C.ar         1 CHJ501   0.0000
     2 C2          10.6510   100.0300    26.5180 C.ar         1 CHJ501   0.0000
     3 O13         11.4500    98.9830    26.9730 O.3          1 CHJ501   0.0000
     4 C14         11.8750    97.9540    26.1470 C.ar         1 CHJ501   0.0000
     5 C15         13.1750    98.0430    25.6430 C.ar         1 CHJ501   0.0000
     6 O20         13.8850    99.1990    25.7860 O.3          1 CHJ501   0.0000
     7 C16         13.7040    96.9800    24.9310 C.ar         1 CHJ501   0.0000
     8 C17         12.9230    95.8680    24.6950 C.ar         1 CHJ501   0.0000
     9 CL1         13.6070    94.5180    23.8300 Cl           1 CHJ501   0.0000
    10 C18         11.6290    95.7880    25.1480 C.ar         1 CHJ501   0.0000
    11 C19         11.1050    96.8350    25.8860 C.ar         1 CHJ501   0.0000
    12 C3           9.8600   100.6500    27.4690 C.ar         1 CHJ501   0.0000
    13 C4           8.9510   101.6020    27.0570 C.ar         1 CHJ501   0.0000
    14 C5           8.8050   101.9640    25.7160 C.ar         1 CHJ501   0.0000
    15 C6           9.6580   101.3600    24.7930 C.ar         1 CHJ501   0.0000
    16 C7           7.7670   102.9120    25.3670 C.2          1 CHJ501   0.0000
    17 C12          7.5600   103.3080    23.9350 C.3          1 CHJ501   0.0000
    18 C8           6.9970   103.4210    26.3490 C.2          1 CHJ501   0.0000
    19 C9           7.1730   103.0710    27.7480 C.2          1 CHJ501   0.0000
    20 O10          6.5650   103.5290    28.6860 O.2          1 CHJ501   0.0000
    21 O11          8.1580   102.1560    28.0440 O.2          1 CHJ501   0.0000
    22 H1          11.1787    99.9761    24.5089 H            1 CHJ501   0.0000
    23 H2          14.8155    99.2622    25.4251 H            1 CHJ501   0.0000
    24 H3          14.6436    97.0181    24.5910 H            1 CHJ501   0.0000
    25 H4          11.0717    94.9824    24.9469 H            1 CHJ501   0.0000
    26 H5          10.1679    96.7824    26.2312 H            1 CHJ501   0.0000
    27 H6           9.9457   100.4124    28.4366 H            1 CHJ501   0.0000
    28 H7           9.6062   101.6255    23.8303 H            1 CHJ501   0.0000
    29 H8           6.8084   103.9650    23.8761 H            1 CHJ501   0.0000
    30 H9           8.3965   103.7258    23.5804 H            1 CHJ501   0.0000
    31 H10          7.3371   102.4972    23.3938 H            1 CHJ501   0.0000
    32 H11          6.2739   104.0669    26.1043 H            1 CHJ501   0.0000
@<TRIPOS>BOND
     1    1    2      ar
     2    1   15      ar
     3    2    3       1
     4    2   12      ar
     5    3    4       1
     6    4    5      ar
     7    4   11      ar
     8    5    6       1
     9    5    7      ar
    10    7    8      ar
    11    8    9       1
    12    8   10      ar
    13   10   11      ar
    14   12   13      ar
    15   13   14      ar
    16   13   21       1
    17   14   15      ar
    18   14   16       1
    19   16   17       1
    20   16   18       2
    21   18   19       1
    22   19   20       2
    23   19   21       1
    24    1   22       1
    25    6   23       1
    26    7   24       1
    27   10   25       1
    28   11   26       1
    29   12   27       1
    30   15   28       1
    31   17   29       1
    32   17   30       1
    33   17   31       1
    34   18   32       1
@<TRIPOS>SUBSTRUCTURE
     1 CHJ501      1 GROUP             4 B     CHJ     0 **** CHJ B 501
