@<TRIPOS>MOLECULE
2i4t_UA2_2_ligand
   35    37     1     0     0
SMALL
NO_CHARGES


@<TRIPOS>ATOM
     1 C2         -87.0970    15.7050    15.9950 C.ar         1 UA2241   0.0000
     2 C4         -86.8710    16.8870    17.9840 C.ar         1 UA2241   0.0000
     3 C5         -88.2600    16.8790    18.1480 C.ar         1 UA2241   0.0000
     4 C6         -89.0450    16.2330    17.1330 C.ar         1 UA2241   0.0000
     5 O5'        -86.2040    20.2500    17.3380 O.3          1 UA2241   0.0000
     6 C5'        -84.8880    20.7080    17.2840 C.3          1 UA2241   0.0000
     7 C4'        -84.0560    20.0220    18.3450 C.3          1 UA2241   0.0000
     8 N4'        -84.8150    19.3540    19.4160 N.4          1 UA2241   1.0000
     9 C3'        -83.2180    18.9540    17.7100 C.3          1 UA2241   0.0000
    10 O3'        -81.9030    19.3070    18.1680 O.3          1 UA2241   0.0000
    11 C2'        -83.7520    17.6420    18.3250 C.3          1 UA2241   0.0000
    12 O2'        -82.6480    17.0980    19.0560 O.3          1 UA2241   0.0000
    13 C1'        -84.8680    17.9050    19.3730 C.3          1 UA2241   0.0000
    14 C9         -86.3150    17.5720    19.0790 C.2          1 UA2241   0.0000
    15 N3         -86.2890    16.3060    16.9020 N.ar         1 UA2241   0.0000
    16 N1         -88.4390    15.6370    16.0890 N.ar         1 UA2241   0.0000
    17 C8         -87.3340    17.9950    19.9190 C.2          1 UA2241   0.0000
    18 N7         -88.5000    17.5650    19.3340 N.pl3        1 UA2241   0.0000
    19 N6         -90.3910    16.1660    17.1270 N.pl3        1 UA2241   0.0000
    20 H1         -86.6657    15.2814    15.1984 H            1 UA2241   0.0000
    21 H5'        -86.2200    19.2626    17.1806 H            1 UA2241   0.0000
    22 H5'1       -84.8747    21.6956    17.4403 H            1 UA2241   0.0000
    23 H5'2       -84.5047    20.5080    16.3823 H            1 UA2241   0.0000
    24 H4'        -83.4482    20.6990    18.7601 H            1 UA2241   0.0000
    25 H4'1       -85.7551    19.6926    19.3772 H            1 UA2241   0.0000
    26 H3'        -83.2868    18.9609    16.7124 H            1 UA2241   0.0000
    27 H8         -81.2373    18.6553    17.8045 H            1 UA2241   0.0000
    28 H2'        -84.0632    17.0098    17.6154 H            1 UA2241   0.0000
    29 H10        -82.6667    17.4436    19.9942 H            1 UA2241   0.0000
    30 H1'        -84.6022    17.5258    20.2593 H            1 UA2241   0.0000
    31 H12        -87.2396    18.5067    20.7730 H            1 UA2241   0.0000
    32 H13        -89.4107    17.7256    19.7145 H            1 UA2241   0.0000
    33 H14        -90.8649    15.6966    16.3820 H            1 UA2241   0.0000
    34 H15        -90.9158    16.5856    17.8676 H            1 UA2241   0.0000
    35 H4'2       -84.4021    19.6160    20.2883 H            1 UA2241   0.0000
@<TRIPOS>BOND
     1    1   15      ar
     2    1   16      ar
     3    2    3      ar
     4    2   14       1
     5    2   15      ar
     6    3    4      ar
     7    3   18       1
     8    4   16      ar
     9    4   19       1
    10    5    6       1
    11    6    7       1
    12    7    8       1
    13    7    9       1
    14    8   13       1
    15    9   10       1
    16    9   11       1
    17   11   12       1
    18   11   13       1
    19   13   14       1
    20   14   17       2
    21   17   18       1
    22    1   20       1
    23    5   21       1
    24    6   22       1
    25    6   23       1
    26    7   24       1
    27    8   25       1
    28    9   26       1
    29   10   27       1
    30   11   28       1
    31   12   29       1
    32   13   30       1
    33   17   31       1
    34   18   32       1
    35   19   33       1
    36   19   34       1
    37    8   35       1
@<TRIPOS>SUBSTRUCTURE
     1 UA2241      1 GROUP             4 B     UA2     0 **** UA2 B 241
