@<TRIPOS>MOLECULE
3s3r_0IW_2_ligand
   81    84     1     0     0
SMALL
NO_CHARGES


@<TRIPOS>ATOM
     1 N1           2.9040    -8.7320    11.0290 N.am         1 0IW324   0.0000
     2 C            2.5080    -7.9730    12.0600 C.2          1 0IW324   0.0000
     3 O            2.6070    -6.7670    11.9620 O.2          1 0IW324   0.0000
     4 C2           2.8520   -10.2070    11.0040 C.3          1 0IW324   0.0000
     5 C3           3.0420   -10.7190     9.5720 C.3          1 0IW324   0.0000
     6 N4           4.2960   -10.1550     9.0790 N.3          1 0IW324   0.0000
     7 CM           5.1140   -10.8900     8.1190 C.3          1 0IW324   0.0000
     8 C5           4.7290    -8.8380     9.5130 C.3          1 0IW324   0.0000
     9 C6           3.4390    -8.0980     9.8260 C.3          1 0IW324   0.0000
    10 N            2.0070    -8.4920    13.1870 N.am         1 0IW324   0.0000
    11 CA           1.5840    -7.6510    14.3080 C.3          1 0IW324   0.0000
    12 C1           2.7740    -7.0550    15.0340 C.2          1 0IW324   0.0000
    13 O1           3.6800    -7.7610    15.4440 O.2          1 0IW324   0.0000
    14 CB           0.8640    -8.6140    15.2220 C.3          1 0IW324   0.0000
    15 CG          -0.4770    -9.1050    14.7270 C.ar         1 0IW324   0.0000
    16 CD1         -1.6450    -8.4300    15.1030 C.ar         1 0IW324   0.0000
    17 CD2         -0.5610   -10.2480    13.9440 C.ar         1 0IW324   0.0000
    18 CE1         -2.8930    -8.8720    14.6780 C.ar         1 0IW324   0.0000
    19 CE2         -1.8020   -10.7000    13.5150 C.ar         1 0IW324   0.0000
    20 CZ          -2.9680   -10.0130    13.8800 C.ar         1 0IW324   0.0000
    21 C11          2.3520    -3.3960    17.1280 C.3          1 0IW324   0.0000
    22 C21          3.3890    -4.5130    17.1920 C.3          1 0IW324   0.0000
    23 C31          3.9120    -5.0330    15.8540 C.3          1 0IW324   0.0000
    24 N2           2.8120    -5.7320    15.1970 N.am         1 0IW324   0.0000
    25 C4           4.2710    -3.8690    14.9360 C.3          1 0IW324   0.0000
    26 C51          4.9520    -4.3620    13.6700 C.3          1 0IW324   0.0000
    27 C1'          5.4070    -3.2000    12.8140 C.ar         1 0IW324   0.0000
    28 C2'          6.7670    -2.8860    12.7480 C.ar         1 0IW324   0.0000
    29 C3'          7.2030    -1.8100    11.9690 C.ar         1 0IW324   0.0000
    30 C4'          6.2770    -1.0470    11.2450 C.ar         1 0IW324   0.0000
    31 C5'          4.9190    -1.3680    11.3070 C.ar         1 0IW324   0.0000
    32 C6'          4.4760    -2.4410    12.0920 C.ar         1 0IW324   0.0000
    33 C12          5.6810     0.2420    15.6630 C.ar         1 0IW324   0.0000
    34 C22          6.0810    -0.3330    16.8720 C.ar         1 0IW324   0.0000
    35 C32          5.1700    -1.0630    17.6380 C.ar         1 0IW324   0.0000
    36 C41          3.8640    -1.2170    17.1830 C.ar         1 0IW324   0.0000
    37 S1           2.8110    -2.0650    18.0230 S.o2         1 0IW324   0.0000
    38 O11          3.3570    -2.4940    19.2800 O.2          1 0IW324   0.0000
    39 O2           1.6460    -1.2420    18.1970 O.2          1 0IW324   0.0000
    40 C52          3.4620    -0.6390    15.9780 C.ar         1 0IW324   0.0000
    41 C61          4.3700     0.0900    15.2110 C.ar         1 0IW324   0.0000
    42 H22          1.9643   -10.5121    11.3489 H            1 0IW324   0.0000
    43 H23          3.5790   -10.5731    11.5849 H            1 0IW324   0.0000
    44 H24          2.2811   -10.4194     8.9965 H            1 0IW324   0.0000
    45 H25          3.0898   -11.7179     9.5680 H            1 0IW324   0.0000
    46 HM1          5.9288   -10.3546     7.8965 H            1 0IW324   0.0000
    47 HM2          5.3887   -11.7655     8.5165 H            1 0IW324   0.0000
    48 HM3          4.5848   -11.0534     7.2864 H            1 0IW324   0.0000
    49 H26          5.2349    -8.3746     8.7854 H            1 0IW324   0.0000
    50 H27          5.3044    -8.9058    10.3280 H            1 0IW324   0.0000
    51 H28          3.6241    -7.1298     9.9946 H            1 0IW324   0.0000
    52 H29          2.7929    -8.1868     9.0679 H            1 0IW324   0.0000
    53 H21          1.9188    -9.4850    13.2659 H            1 0IW324   0.0000
    54 HA           0.9645    -6.9310    13.9951 H            1 0IW324   0.0000
    55 HB1          0.7194    -8.1560    16.0991 H            1 0IW324   0.0000
    56 HB2          1.4534    -9.4108    15.3552 H            1 0IW324   0.0000
    57 HD1         -1.5806    -7.6193    15.6849 H            1 0IW324   0.0000
    58 HD2          0.2691   -10.7442    13.6897 H            1 0IW324   0.0000
    59 HE1         -3.7230    -8.3797    14.9403 H            1 0IW324   0.0000
    60 HE2         -1.8640   -11.5184    12.9437 H            1 0IW324   0.0000
    61 HZ          -3.8584   -10.3429    13.5664 H            1 0IW324   0.0000
    62 H4           1.4836    -3.7408    17.4844 H            1 0IW324   0.0000
    63 H5           2.2344    -3.1189    16.1744 H            1 0IW324   0.0000
    64 H2           4.6952    -5.6405    15.9864 H            1 0IW324   0.0000
    65 H1           2.0462    -5.1901    14.8507 H            1 0IW324   0.0000
    66 H11          4.8895    -3.2499    15.4199 H            1 0IW324   0.0000
    67 H12          3.4355    -3.3787    14.6879 H            1 0IW324   0.0000
    68 H13          4.3076    -4.9207    13.1479 H            1 0IW324   0.0000
    69 H14          5.7465    -4.9154    13.9199 H            1 0IW324   0.0000
    70 H2'          7.4303    -3.4324    13.2594 H            1 0IW324   0.0000
    71 H3'          8.1764    -1.5847    11.9284 H            1 0IW324   0.0000
    72 H4'          6.5867    -0.2770    10.6871 H            1 0IW324   0.0000
    73 H5'          4.2575    -0.8277    10.7870 H            1 0IW324   0.0000
    74 H6'          3.5021    -2.6636    12.1367 H            1 0IW324   0.0000
    75 H8           6.3375     0.7649    15.1193 H            1 0IW324   0.0000
    76 H7           7.0226    -0.2214    17.1896 H            1 0IW324   0.0000
    77 H6           5.4535    -1.4714    18.5057 H            1 0IW324   0.0000
    78 H10          2.5191    -0.7481    15.6634 H            1 0IW324   0.0000
    79 H9           4.0841     0.5001    14.3449 H            1 0IW324   0.0000
    80 H3           4.1820    -4.1174    17.6553 H            1 0IW324   0.0000
    81 H110         3.0070    -6.3290    18.1770 H            1 0IW324   0.0000
@<TRIPOS>BOND
     1   41   79       1
     2   22   80       1
     3   34   76       1
     4   33   75       1
     5   22   81       1
     6    1    2      am
     7    1    4       1
     8    1    9       1
     9    2    3       2
    10    2   10      am
    11    4    5       1
    12    5    6       1
    13    6    7       1
    14    6    8       1
    15    8    9       1
    16   10   11       1
    17   11   12       1
    18   11   14       1
    19   12   13       2
    20   12   24      am
    21   14   15       1
    22   15   16      ar
    23   15   17      ar
    24   16   18      ar
    25   17   19      ar
    26   18   20      ar
    27   19   20      ar
    28   21   22       1
    29   21   37       1
    30   22   23       1
    31   23   24       1
    32   23   25       1
    33   25   26       1
    34   26   27       1
    35   27   28      ar
    36   27   32      ar
    37   28   29      ar
    38   29   30      ar
    39   30   31      ar
    40   31   32      ar
    41   33   34      ar
    42   33   41      ar
    43   34   35      ar
    44   35   36      ar
    45   36   37       1
    46   36   40      ar
    47   37   38       2
    48   37   39       2
    49   40   41      ar
    50    4   42       1
    51    4   43       1
    52    5   44       1
    53    5   45       1
    54    7   46       1
    55    7   47       1
    56    7   48       1
    57    8   49       1
    58    8   50       1
    59    9   51       1
    60    9   52       1
    61   10   53       1
    62   11   54       1
    63   14   55       1
    64   14   56       1
    65   16   57       1
    66   17   58       1
    67   18   59       1
    68   19   60       1
    69   20   61       1
    70   21   62       1
    71   21   63       1
    72   40   78       1
    73   35   77       1
    74   23   64       1
    75   24   65       1
    76   25   66       1
    77   25   67       1
    78   26   68       1
    79   26   69       1
    80   28   70       1
    81   29   71       1
    82   30   72       1
    83   31   73       1
    84   32   74       1
@<TRIPOS>SUBSTRUCTURE
     1 0IW324      1 GROUP             4 B     0IW     0 **** 0IW B 324
