@<TRIPOS>MOLECULE
4m0e_1YL_1_ligand
   37    40     1     0     0
SMALL
NO_CHARGES


@<TRIPOS>ATOM
     1 C18        -21.9220   -40.4310    26.4360 C.3          1 1YL604   0.0000
     2 C4         -20.8500   -40.7160    25.2850 C.ar         1 1YL604   0.0000
     3 C3         -21.0960   -40.3650    23.8880 C.ar         1 1YL604   0.0000
     4 C2         -20.0970   -40.6540    22.8700 C.ar         1 1YL604   0.0000
     5 C1         -18.8400   -41.3020    23.2570 C.ar         1 1YL604   0.0000
     6 C10        -18.5870   -41.6580    24.6620 C.ar         1 1YL604   0.0000
     7 C5         -19.6030   -41.3510    25.6650 C.ar         1 1YL604   0.0000
     8 C6         -19.4110   -41.6760    27.0780 C.ar         1 1YL604   0.0000
     9 C7         -18.1650   -42.3210    27.4940 C.ar         1 1YL604   0.0000
    10 C8         -17.1390   -42.6000    26.4960 C.ar         1 1YL604   0.0000
    11 C9         -17.3260   -42.2970    25.0800 C.ar         1 1YL604   0.0000
    12 C11        -16.2130   -42.6280    24.1350 C.ar         1 1YL604   0.0000
    13 O21        -16.2790   -42.3790    22.9000 O.3          1 1YL604   0.0000
    14 C12        -14.9840   -43.2650    24.5860 C.ar         1 1YL604   0.0000
    15 O20        -14.0660   -43.5380    23.7340 O.3          1 1YL604   0.0000
    16 C13        -14.8330   -43.6020    26.0950 C.ar         1 1YL604   0.0000
    17 C14        -15.8520   -43.2890    26.9740 C.ar         1 1YL604   0.0000
    18 O19        -15.5000   -43.6870    28.3540 O.3          1 1YL604   0.0000
    19 C16        -14.3550   -44.6420    28.2610 C.3          1 1YL604   0.0000
    20 C15        -13.6170   -44.2840    26.9010 C.3          1 1YL604   0.0000
    21 C17        -12.4200   -43.2130    27.0780 C.3          1 1YL604   0.0000
    22 H1         -21.5601   -40.7449    27.3138 H            1 1YL604   0.0000
    23 H2         -22.1070   -39.4494    26.4836 H            1 1YL604   0.0000
    24 H3         -22.7696   -40.9204    26.2307 H            1 1YL604   0.0000
    25 H4         -21.9555   -39.9238    23.6301 H            1 1YL604   0.0000
    26 H5         -20.2664   -40.4126    21.9145 H            1 1YL604   0.0000
    27 H6         -18.1502   -41.5033    22.5615 H            1 1YL604   0.0000
    28 H7         -20.1201   -41.4608    27.7494 H            1 1YL604   0.0000
    29 H8         -18.0188   -42.5677    28.4520 H            1 1YL604   0.0000
    30 H9         -15.5142   -42.6154    22.3007 H            1 1YL604   0.0000
    31 H10        -13.2186   -43.9755    24.0349 H            1 1YL604   0.0000
    32 H11        -14.6867   -45.5852    28.2413 H            1 1YL604   0.0000
    33 H12        -13.7358   -44.5225    29.0371 H            1 1YL604   0.0000
    34 H13        -13.2958   -45.1097    26.4373 H            1 1YL604   0.0000
    35 H14        -11.6650   -43.6366    27.5785 H            1 1YL604   0.0000
    36 H15        -12.0997   -42.9193    26.1774 H            1 1YL604   0.0000
    37 H16        -12.7546   -42.4203    27.5876 H            1 1YL604   0.0000
@<TRIPOS>BOND
     1    1    2       1
     2    2    3      ar
     3    2    7      ar
     4    3    4      ar
     5    4    5      ar
     6    5    6      ar
     7    6    7      ar
     8    6   11      ar
     9    7    8      ar
    10    8    9      ar
    11    9   10      ar
    12   10   11      ar
    13   10   17      ar
    14   11   12      ar
    15   12   13       1
    16   12   14      ar
    17   14   15       1
    18   14   16      ar
    19   16   17      ar
    20   16   20       1
    21   17   18       1
    22   18   19       1
    23   19   20       1
    24   20   21       1
    25    1   22       1
    26    1   23       1
    27    1   24       1
    28    3   25       1
    29    4   26       1
    30    5   27       1
    31    8   28       1
    32    9   29       1
    33   13   30       1
    34   15   31       1
    35   19   32       1
    36   19   33       1
    37   20   34       1
    38   21   35       1
    39   21   36       1
    40   21   37       1
@<TRIPOS>SUBSTRUCTURE
     1 1YL604      1 GROUP             4 A     1YL     0 **** 1YL A 604
