@<TRIPOS>MOLECULE
3wyf_GTP_1_ligand
   44    46     1     0     0
SMALL
NO_CHARGES


@<TRIPOS>ATOM
     1 PG          17.0260     1.5490    36.7460 P.3          1 GTP301   0.0000
     2 O1G         17.0000     0.3400    35.8990 O.co2        1 GTP301   0.0000
     3 O2G         16.2430     2.7810    36.4250 O.co2        1 GTP301  -1.0000
     4 O3G         17.0950     1.0840    38.1350 O.co2        1 GTP301  -1.0000
     5 O3B         18.5730     2.0050    36.5150 O.3          1 GTP301   0.0000
     6 PB          19.0960     3.0310    35.4580 P.3          1 GTP301   0.0000
     7 O1B         19.9000     2.2580    34.4600 O.co2        1 GTP301   0.0000
     8 O2B         18.0990     4.0640    34.9800 O.co2        1 GTP301  -1.0000
     9 O3A         20.2520     3.8590    36.2890 O.3          1 GTP301   0.0000
    10 PA          20.4720     5.4510    36.2070 P.3          1 GTP301   0.0000
    11 O1A         20.5080     6.1820    34.9240 O.co2        1 GTP301   0.0000
    12 O2A         19.4650     6.0720    37.1660 O.co2        1 GTP301  -1.0000
    13 O5'         21.9120     5.7320    36.9200 O.3          1 GTP301   0.0000
    14 C5'         22.5960     4.9780    37.9040 C.3          1 GTP301   0.0000
    15 C4'         23.8940     5.7040    38.3410 C.3          1 GTP301   0.0000
    16 O4'         24.8730     5.5360    37.3330 O.3          1 GTP301   0.0000
    17 C3'         23.7490     7.2190    38.4980 C.3          1 GTP301   0.0000
    18 O3'         24.3640     7.5960    39.7280 O.3          1 GTP301   0.0000
    19 C2'         24.5020     7.7630    37.3030 C.3          1 GTP301   0.0000
    20 O2'         24.8880     9.1450    37.3770 O.3          1 GTP301   0.0000
    21 C1'         25.6040     6.7520    37.0970 C.3          1 GTP301   0.0000
    22 N9          26.0720     6.8350    35.6690 N.pl3        1 GTP301   0.0000
    23 C8          25.2950     6.7920    34.5790 C.2          1 GTP301   0.0000
    24 N7          26.0180     6.9390    33.4660 N.2          1 GTP301   0.0000
    25 C5          27.3120     7.0460    33.7900 C.2          1 GTP301   0.0000
    26 C6          28.5910     7.2030    33.0600 C.2          1 GTP301   0.0000
    27 O6          28.6760     7.2870    31.7810 O.2          1 GTP301   0.0000
    28 N1          29.6850     7.2700    33.8500 N.pl3        1 GTP301   0.0000
    29 C2          29.6640     7.2250    35.2170 C.2          1 GTP301   0.0000
    30 N2          30.8320     7.3120    35.9270 N.pl3        1 GTP301   0.0000
    31 N3          28.5230     7.0760    35.9340 N.2          1 GTP301   0.0000
    32 C4          27.3380     6.9920    35.2660 C.2          1 GTP301   0.0000
    33 H5'1        22.8312     4.0821    37.5272 H            1 GTP301   0.0000
    34 H5'2        22.0017     4.8595    38.6995 H            1 GTP301   0.0000
    35 H4'         24.2254     5.3093    39.1980 H            1 GTP301   0.0000
    36 H3'         22.7879     7.4943    38.4753 H            1 GTP301   0.0000
    37 H5          24.2815     8.5848    39.8526 H            1 GTP301   0.0000
    38 H2'         23.8886     7.6800    36.5176 H            1 GTP301   0.0000
    39 H7          24.1614     9.7150    36.9934 H            1 GTP301   0.0000
    40 H1'         26.3538     6.8736    37.7473 H            1 GTP301   0.0000
    41 H9          24.3031     6.6662    34.5964 H            1 GTP301   0.0000
    42 H10         30.5750     7.3590    33.4028 H            1 GTP301   0.0000
    43 H11         30.8134     7.2788    36.9263 H            1 GTP301   0.0000
    44 H12         31.7034     7.4087    35.4461 H            1 GTP301   0.0000
@<TRIPOS>BOND
     1    1    2      ar
     2    1    3      ar
     3    1    4      ar
     4    1    5       1
     5    5    6       1
     6    6    7      ar
     7    6    8      ar
     8    6    9       1
     9    9   10       1
    10   10   11      ar
    11   10   12      ar
    12   10   13       1
    13   13   14       1
    14   14   15       1
    15   15   16       1
    16   15   17       1
    17   16   21       1
    18   17   18       1
    19   17   19       1
    20   19   20       1
    21   19   21       1
    22   21   22       1
    23   22   23       1
    24   22   32       1
    25   23   24       2
    26   24   25       1
    27   25   26       1
    28   25   32       2
    29   26   27       2
    30   26   28       1
    31   28   29       1
    32   29   30       1
    33   29   31       2
    34   31   32       1
    35   30   44       1
    36   30   43       1
    37   28   42       1
    38   23   41       1
    39   14   33       1
    40   14   34       1
    41   15   35       1
    42   17   36       1
    43   18   37       1
    44   19   38       1
    45   20   39       1
    46   21   40       1
@<TRIPOS>SUBSTRUCTURE
     1 GTP301      1 GROUP             4 A     GTP     0 **** GTP A 301
