@<TRIPOS>MOLECULE
1iay_AVG_1_ligand
   26    25     1     0     0
SMALL
NO_CHARGES


@<TRIPOS>ATOM
     1 O1           0.9770    44.9860    19.0860 O.co2        1 AVG501   0.0000
     2 O2          -1.0650    44.1790    19.0430 O.co2        1 AVG501  -1.0000
     3 C1          -0.0560    44.7620    18.4490 C.2          1 AVG501   0.0000
     4 C2          -0.1200    45.0430    16.9390 C.3          1 AVG501   0.0000
     5 N1           0.8760    46.0530    16.5800 N.4          1 AVG501   1.0000
     6 C3           0.1610    43.7590    16.1670 C.3          1 AVG501   0.0000
     7 C4          -0.5020    43.4960    14.9190 C.3          1 AVG501   0.0000
     8 O3          -1.7380    42.8040    14.9020 O.3          1 AVG501   0.0000
     9 C5          -1.5390    41.4630    14.4700 C.3          1 AVG501   0.0000
    10 C6          -2.2620    40.5000    15.4380 C.3          1 AVG501   0.0000
    11 N2          -1.4370    40.2970    16.6310 N.4          1 AVG501   1.0000
    12 H1          -1.0320    45.3786    16.7029 H            1 AVG501   0.0000
    13 H2           0.8301    46.2319    15.5972 H            1 AVG501   0.0000
    14 H3           0.6898    46.8978    17.0816 H            1 AVG501   0.0000
    15 H4          -0.0687    43.0016    16.7782 H            1 AVG501   0.0000
    16 H5           1.1428    43.7483    15.9773 H            1 AVG501   0.0000
    17 H6           0.1343    42.9628    14.3616 H            1 AVG501   0.0000
    18 H7          -0.6624    44.3828    14.4856 H            1 AVG501   0.0000
    19 H8          -0.5606    41.2565    14.4626 H            1 AVG501   0.0000
    20 H9          -1.9103    41.3507    13.5483 H            1 AVG501   0.0000
    21 H10         -2.4131    39.6220    14.9838 H            1 AVG501   0.0000
    22 H11         -3.1420    40.8934    15.7042 H            1 AVG501   0.0000
    23 H12         -1.9415    40.5980    17.4403 H            1 AVG501   0.0000
    24 H13         -1.2126    39.3266    16.7199 H            1 AVG501   0.0000
    25 H14          1.7888    45.7196    16.8158 H            1 AVG501   0.0000
    26 H15         -0.5937    40.8279    16.5474 H            1 AVG501   0.0000
@<TRIPOS>BOND
     1    1    3      ar
     2    2    3      ar
     3    3    4       1
     4    4    5       1
     5    4    6       1
     6    6    7       1
     7    7    8       1
     8    8    9       1
     9    9   10       1
    10   10   11       1
    11   11   24       1
    12    4   12       1
    13    5   13       1
    14    5   14       1
    15    6   15       1
    16    6   16       1
    17    7   17       1
    18    7   18       1
    19    9   19       1
    20    9   20       1
    21   10   21       1
    22   10   22       1
    23   11   23       1
    24    5   25       1
    25   11   26       1
@<TRIPOS>SUBSTRUCTURE
     1 AVG501      1 GROUP             4 A     AVG     0 **** AVG A 501
