@<TRIPOS>MOLECULE
4jn9_FAD_2_ligand
   82    87     1     0     0
SMALL
NO_CHARGES


@<TRIPOS>ATOM
     1 PA          50.2620    -2.3030    25.0220 P.3          1 FAD401   0.0000
     2 O1A         50.9080    -1.6790    26.2450 O.co2        1 FAD401   0.0000
     3 O2A         48.8010    -2.5640    25.2100 O.co2        1 FAD401  -1.0000
     4 O5B         50.9510    -3.7590    24.7230 O.3          1 FAD401   0.0000
     5 C5B         52.2990    -3.9060    24.4180 C.3          1 FAD401   0.0000
     6 C4B         52.7250    -5.2930    24.3220 C.3          1 FAD401   0.0000
     7 O4B         54.0640    -5.3530    23.9000 O.3          1 FAD401   0.0000
     8 C3B         52.6700    -5.8810    25.6860 C.3          1 FAD401   0.0000
     9 O3B         51.9020    -7.0900    25.6570 O.3          1 FAD401   0.0000
    10 C2B         54.0240    -6.0900    26.0320 C.3          1 FAD401   0.0000
    11 O2B         54.2540    -7.1260    26.9220 O.3          1 FAD401   0.0000
    12 C1B         54.7230    -6.2650    24.7250 C.3          1 FAD401   0.0000
    13 N9A         56.1540    -5.9090    24.9120 N.pl3        1 FAD401   0.0000
    14 C8A         56.8240    -4.9580    25.5820 C.2          1 FAD401   0.0000
    15 N7A         58.1240    -5.2040    25.3500 N.2          1 FAD401   0.0000
    16 C5A         58.2540    -6.2940    24.5630 C.ar         1 FAD401   0.0000
    17 C6A         59.3530    -6.9610    24.0530 C.ar         1 FAD401   0.0000
    18 N6A         60.6490    -6.4880    24.3470 N.pl3        1 FAD401   0.0000
    19 N1A         59.1680    -8.0560    23.2870 N.ar         1 FAD401   0.0000
    20 C2A         57.9180    -8.4870    23.0170 C.ar         1 FAD401   0.0000
    21 N3A         56.8410    -7.8630    23.4980 N.ar         1 FAD401   0.0000
    22 C4A         56.9640    -6.7700    24.2760 C.ar         1 FAD401   0.0000
    23 N1          42.6970     2.9010    26.4980 N.2          1 FAD401   0.0000
    24 C2          41.4510     2.8620    26.0130 C.2          1 FAD401   0.0000
    25 O2          41.2380     3.1290    24.7160 O.2          1 FAD401   0.0000
    26 N3          40.4000     2.5940    26.7770 N.pl3        1 FAD401   0.0000
    27 C4          40.5470     2.3640    28.0940 C.2          1 FAD401   0.0000
    28 O4          39.5150     2.1170    28.8290 O.2          1 FAD401   0.0000
    29 C4X         41.8240     2.4060    28.6360 C.2          1 FAD401   0.0000
    30 N5          42.0320     2.1710    29.9470 N.2          1 FAD401   0.0000
    31 C5X         43.2820     2.2220    30.4550 C.ar         1 FAD401   0.0000
    32 C6          43.4880     1.9830    31.8320 C.ar         1 FAD401   0.0000
    33 C7          44.7750     2.0460    32.3640 C.ar         1 FAD401   0.0000
    34 C7M         45.0030     1.8000    33.7860 C.3          1 FAD401   0.0000
    35 C8          45.8430     2.3260    31.5330 C.ar         1 FAD401   0.0000
    36 C8M         47.1880     2.4290    32.1290 C.3          1 FAD401   0.0000
    37 C9          45.6460     2.5600    30.1580 C.ar         1 FAD401   0.0000
    38 C9A         44.3590     2.5010    29.6180 C.ar         1 FAD401   0.0000
    39 N10         44.1470     2.7260    28.2910 N.pl3        1 FAD401   0.0000
    40 C10         42.8990     2.6830    27.8040 C.2          1 FAD401   0.0000
    41 C1'         45.2690     2.9260    27.3160 C.3          1 FAD401   0.0000
    42 C2'         45.9020     1.6440    26.7610 C.2          1 FAD401   0.0000
    43 O2'         46.1090     0.7380    27.4890 O.2          1 FAD401   0.0000
    44 C3'         46.7750     1.8090    25.5350 C.3          1 FAD401   0.0000
    45 O3'         46.3620     2.8560    24.6730 O.3          1 FAD401   0.0000
    46 C4'         46.9000     0.4630    24.7820 C.3          1 FAD401   0.0000
    47 O4'         47.1100    -0.5960    25.6320 O.3          1 FAD401   0.0000
    48 C5'         48.0570     0.5020    23.8760 C.3          1 FAD401   0.0000
    49 O5'         48.2400    -0.5900    22.9990 O.3          1 FAD401   0.0000
    50 P           49.6560    -1.0340    22.5530 P.3          1 FAD401   0.0000
    51 O1P         49.4660    -2.2530    21.5870 O.co2        1 FAD401   0.0000
    52 O2P         50.3830     0.1490    21.8610 O.co2        1 FAD401  -1.0000
    53 O3P         50.5540    -1.4010    23.8270 O.3          1 FAD401   0.0000
    54 H5B1        52.8358    -3.4590    25.1335 H            1 FAD401   0.0000
    55 H5B2        52.4754    -3.4594    23.5408 H            1 FAD401   0.0000
    56 H4B         52.1344    -5.8008    23.6949 H            1 FAD401   0.0000
    57 H3B         52.2540    -5.2294    26.3203 H            1 FAD401   0.0000
    58 H5          52.3300    -7.7419    25.0310 H            1 FAD401   0.0000
    59 H2B         54.3653    -5.2480    26.4497 H            1 FAD401   0.0000
    60 H7          54.4012    -7.9750    26.4145 H            1 FAD401   0.0000
    61 H1B         54.6239    -7.1997    24.3835 H            1 FAD401   0.0000
    62 H8A         56.4369    -4.2216    26.1369 H            1 FAD401   0.0000
    63 H6A1        61.4495    -6.9638    23.9826 H            1 FAD401   0.0000
    64 H6A2        60.7672    -5.6769    24.9198 H            1 FAD401   0.0000
    65 H2A         57.7956    -9.2954    22.4412 H            1 FAD401   0.0000
    66 H13         39.4876     2.5626    26.3688 H            1 FAD401   0.0000
    67 H14         42.7114     1.7688    32.4245 H            1 FAD401   0.0000
    68 H7M1        45.9787     1.8869    33.9871 H            1 FAD401   0.0000
    69 H7M2        44.4906     2.4676    34.3261 H            1 FAD401   0.0000
    70 H7M3        44.6958     0.8771    34.0181 H            1 FAD401   0.0000
    71 H8M1        47.8552     2.6339    31.4128 H            1 FAD401   0.0000
    72 H8M2        47.1954     3.1607    32.8106 H            1 FAD401   0.0000
    73 H8M3        47.4255     1.5623    32.5677 H            1 FAD401   0.0000
    74 H21         46.4268     2.7682    29.5689 H            1 FAD401   0.0000
    75 H1'1        45.9865     3.4491    27.7759 H            1 FAD401   0.0000
    76 H1'2        44.9150     3.4534    26.5437 H            1 FAD401   0.0000
    77 H3'         47.6905     2.0454    25.8605 H            1 FAD401   0.0000
    78 H25         47.1592     3.2349    24.2030 H            1 FAD401   0.0000
    79 H4'         46.0682     0.3018    24.2508 H            1 FAD401   0.0000
    80 H27         47.6465    -1.2980    25.1637 H            1 FAD401   0.0000
    81 H5'1        48.8781     0.5711    24.4426 H            1 FAD401   0.0000
    82 H5'2        47.9693     1.3248    23.3145 H            1 FAD401   0.0000
@<TRIPOS>BOND
     1    1    2      ar
     2    1    3      ar
     3    1    4       1
     4    1   53       1
     5    4    5       1
     6    5    6       1
     7    6    7       1
     8    6    8       1
     9    7   12       1
    10    8    9       1
    11    8   10       1
    12   10   11       1
    13   10   12       1
    14   12   13       1
    15   13   14       1
    16   13   22       1
    17   14   15       2
    18   15   16       1
    19   16   17      ar
    20   16   22      ar
    21   17   18       1
    22   17   19      ar
    23   19   20      ar
    24   20   21      ar
    25   21   22      ar
    26   23   24       1
    27   23   40       2
    28   24   25       2
    29   24   26       1
    30   26   27       1
    31   27   28       2
    32   27   29       1
    33   29   30       2
    34   29   40       1
    35   30   31       1
    36   31   32      ar
    37   31   38      ar
    38   32   33      ar
    39   33   34       1
    40   33   35      ar
    41   35   36       1
    42   35   37      ar
    43   37   38      ar
    44   38   39       1
    45   39   40       1
    46   39   41       1
    47   41   42       1
    48   42   43       2
    49   42   44       1
    50   44   45       1
    51   44   46       1
    52   46   47       1
    53   46   48       1
    54   48   49       1
    55   49   50       1
    56   50   51      ar
    57   50   52      ar
    58   50   53       1
    59   48   82       1
    60    5   54       1
    61    5   55       1
    62    6   56       1
    63    8   57       1
    64    9   58       1
    65   10   59       1
    66   11   60       1
    67   12   61       1
    68   14   62       1
    69   18   63       1
    70   18   64       1
    71   20   65       1
    72   26   66       1
    73   32   67       1
    74   34   68       1
    75   34   69       1
    76   34   70       1
    77   36   71       1
    78   36   72       1
    79   36   73       1
    80   37   74       1
    81   41   75       1
    82   41   76       1
    83   44   77       1
    84   45   78       1
    85   46   79       1
    86   47   80       1
    87   48   81       1
@<TRIPOS>SUBSTRUCTURE
     1 FAD401      1 GROUP             4 B     FAD     0 **** FAD B 401
