@<TRIPOS>MOLECULE
4h12_SAH_1_ligand
   46    48     1     0     0
SMALL
NO_CHARGES


@<TRIPOS>ATOM
     1 N           -3.4920    26.4220    20.4500 N.4          1 SAH1804   1.0000
     2 CA          -4.4130    25.5570    19.6400 C.3          1 SAH1804   0.0000
     3 CB          -3.6200    24.3880    19.0470 C.3          1 SAH1804   0.0000
     4 CG          -2.7600    24.8680    17.8650 C.3          1 SAH1804   0.0000
     5 SD          -3.8390    25.0810    16.4840 S.3          1 SAH1804   0.0000
     6 C           -5.5790    25.0680    20.4710 C.2          1 SAH1804   0.0000
     7 O           -6.3620    24.2030    20.0430 O.co2        1 SAH1804   0.0000
     8 OXT         -5.7920    25.5130    21.6140 O.co2        1 SAH1804  -1.0000
     9 C5'         -3.2770    26.6000    15.7800 C.3          1 SAH1804   0.0000
    10 C4'         -4.0010    27.7930    16.3950 C.3          1 SAH1804   0.0000
    11 O4'         -3.5550    28.0490    17.7210 O.3          1 SAH1804   0.0000
    12 C3'         -3.7550    29.1030    15.6550 C.3          1 SAH1804   0.0000
    13 O3'         -4.7540    29.2240    14.6390 O.3          1 SAH1804   0.0000
    14 C2'         -3.8980    30.1570    16.7430 C.3          1 SAH1804   0.0000
    15 O2'         -5.3000    30.4020    16.9600 O.3          1 SAH1804   0.0000
    16 C1'         -3.2970    29.4350    17.9280 C.3          1 SAH1804   0.0000
    17 N9          -1.8240    29.6300    17.9500 N.pl3        1 SAH1804   0.0000
    18 C8          -0.8720    28.7010    17.7070 C.2          1 SAH1804   0.0000
    19 N7           0.3710    29.2370    17.8110 N.2          1 SAH1804   0.0000
    20 C5           0.2190    30.5440    18.1390 C.ar         1 SAH1804   0.0000
    21 C6           1.0930    31.7240    18.3940 C.ar         1 SAH1804   0.0000
    22 N6           2.4420    31.6410    18.3670 N.pl3        1 SAH1804   0.0000
    23 N1           0.5070    32.9120    18.6830 N.ar         1 SAH1804   0.0000
    24 C2          -0.8190    33.0420    18.7410 C.ar         1 SAH1804   0.0000
    25 N3          -1.6720    32.0390    18.5180 N.ar         1 SAH1804   0.0000
    26 C4          -1.2230    30.7890    18.2100 C.ar         1 SAH1804   0.0000
    27 H1          -3.8168    27.3675    20.4273 H            1 SAH1804   0.0000
    28 H2          -3.4760    26.0977    21.3958 H            1 SAH1804   0.0000
    29 HA          -4.7743    26.1049    18.8855 H            1 SAH1804   0.0000
    30 HB1         -4.2568    23.6863    18.7276 H            1 SAH1804   0.0000
    31 HB2         -3.0250    24.0021    19.7521 H            1 SAH1804   0.0000
    32 HG1         -2.0608    24.1858    17.6511 H            1 SAH1804   0.0000
    33 HG2         -2.3197    25.7365    18.0925 H            1 SAH1804   0.0000
    34 H5'1        -3.4487    26.5864    14.7950 H            1 SAH1804   0.0000
    35 H5'2        -2.2953    26.6931    15.9459 H            1 SAH1804   0.0000
    36 H4'         -4.9833    27.6063    16.4110 H            1 SAH1804   0.0000
    37 H3'         -2.8375    29.1220    15.2578 H            1 SAH1804   0.0000
    38 H12         -4.9478    30.1913    14.4756 H            1 SAH1804   0.0000
    39 H2'         -3.3999    30.9954    16.5217 H            1 SAH1804   0.0000
    40 H14         -5.6418    29.7805    17.6650 H            1 SAH1804   0.0000
    41 H1'         -3.7100    29.7496    18.7827 H            1 SAH1804   0.0000
    42 H16         -1.0589    27.7451    17.4805 H            1 SAH1804   0.0000
    43 H17          2.9966    32.4543    18.5431 H            1 SAH1804   0.0000
    44 H18          2.8853    30.7663    18.1710 H            1 SAH1804   0.0000
    45 H19         -1.1957    33.9411    18.9640 H            1 SAH1804   0.0000
    46 H20         -2.5695    26.3772    20.0666 H            1 SAH1804   0.0000
@<TRIPOS>BOND
     1    1    2       1
     2    2    3       1
     3    2    6       1
     4    3    4       1
     5    4    5       1
     6    5    9       1
     7    6    7      ar
     8    6    8      ar
     9    9   10       1
    10   10   11       1
    11   10   12       1
    12   11   16       1
    13   12   13       1
    14   12   14       1
    15   14   15       1
    16   14   16       1
    17   16   17       1
    18   17   18       1
    19   17   26       1
    20   18   19       2
    21   19   20       1
    22   20   21      ar
    23   20   26      ar
    24   21   22       1
    25   21   23      ar
    26   23   24      ar
    27   24   25      ar
    28   25   26      ar
    29    1   27       1
    30    1   28       1
    31    2   29       1
    32    3   30       1
    33    3   31       1
    34    4   32       1
    35    4   33       1
    36    1   46       1
    37    9   34       1
    38    9   35       1
    39   10   36       1
    40   12   37       1
    41   13   38       1
    42   14   39       1
    43   15   40       1
    44   16   41       1
    45   18   42       1
    46   22   43       1
    47   22   44       1
    48   24   45       1
@<TRIPOS>SUBSTRUCTURE
     1 SAH1804     1 GROUP             4 A     SAH     0 **** SAH A1804
