@<TRIPOS>MOLECULE
2zts_ADP_2_ligand
   39    41     1     0     0
SMALL
NO_CHARGES


@<TRIPOS>ATOM
     1 PB         128.0650    -3.1630    23.3830 P.3          1 ADP1903   0.0000
     2 O1B        128.1630    -3.7040    24.7740 O.co2        1 ADP1903   0.0000
     3 O2B        129.4680    -2.6910    23.0070 O.co2        1 ADP1903  -1.0000
     4 O3B        127.1140    -1.9530    23.3490 O.co2        1 ADP1903  -1.0000
     5 PA         126.6690    -4.3540    21.1730 P.3          1 ADP1903   0.0000
     6 O1A        125.2450    -4.3630    21.5230 O.co2        1 ADP1903   0.0000
     7 O2A        126.8830    -3.2220    20.1930 O.co2        1 ADP1903  -1.0000
     8 O3A        127.6330    -4.3910    22.4420 O.3          1 ADP1903   0.0000
     9 O5'        127.1210    -5.7840    20.6090 O.3          1 ADP1903   0.0000
    10 C5'        126.8840    -6.0410    19.2690 C.3          1 ADP1903   0.0000
    11 C4'        127.4370    -7.4180    18.9820 C.3          1 ADP1903   0.0000
    12 O4'        126.4320    -8.3460    18.6030 O.3          1 ADP1903   0.0000
    13 C3'        128.4570    -7.4470    17.8610 C.3          1 ADP1903   0.0000
    14 O3'        129.7450    -7.3430    18.3750 O.3          1 ADP1903   0.0000
    15 C2'        128.3210    -8.8500    17.3000 C.3          1 ADP1903   0.0000
    16 O2'        129.0730    -9.8130    17.9770 O.3          1 ADP1903   0.0000
    17 C1'        126.8770    -9.1640    17.5310 C.3          1 ADP1903   0.0000
    18 N9         126.0170    -8.7620    16.4020 N.pl3        1 ADP1903   0.0000
    19 C8         125.7570    -7.5050    15.9300 C.2          1 ADP1903   0.0000
    20 N7         124.8630    -7.5900    14.9380 N.2          1 ADP1903   0.0000
    21 C5         124.5320    -8.8800    14.8010 C.ar         1 ADP1903   0.0000
    22 C6         123.6750    -9.5310    13.9360 C.ar         1 ADP1903   0.0000
    23 N6         122.9650    -8.8340    13.0530 N.pl3        1 ADP1903   0.0000
    24 N1         123.5630   -10.9100    14.0340 N.ar         1 ADP1903   0.0000
    25 C2         124.2760   -11.6160    14.9800 C.ar         1 ADP1903   0.0000
    26 N3         125.1480   -10.9530    15.8280 N.ar         1 ADP1903   0.0000
    27 C4         125.2450    -9.6200    15.7240 C.ar         1 ADP1903   0.0000
    28 H5'1       127.3459    -5.3596    18.7012 H            1 ADP1903   0.0000
    29 H5'2       125.9017    -6.0192    19.0831 H            1 ADP1903   0.0000
    30 H4'        127.8773    -7.7570    19.8134 H            1 ADP1903   0.0000
    31 H3'        128.2728    -6.7484    17.1696 H            1 ADP1903   0.0000
    32 H5         130.2718    -8.1541    18.1208 H            1 ADP1903   0.0000
    33 H2'        128.5322    -8.8609    16.3226 H            1 ADP1903   0.0000
    34 H7         129.9793    -9.8819    17.5600 H            1 ADP1903   0.0000
    35 H1'        126.7529   -10.1326    17.7464 H            1 ADP1903   0.0000
    36 H9         126.1682    -6.6596    16.2709 H            1 ADP1903   0.0000
    37 H10        122.3443    -9.3056    12.4266 H            1 ADP1903   0.0000
    38 H11        123.0519    -7.8385    13.0157 H            1 ADP1903   0.0000
    39 H12        124.1635   -12.6069    15.0539 H            1 ADP1903   0.0000
@<TRIPOS>BOND
     1    1    2      ar
     2    1    3      ar
     3    1    4      ar
     4    1    8       1
     5    5    6      ar
     6    5    7      ar
     7    5    8       1
     8    5    9       1
     9    9   10       1
    10   10   11       1
    11   11   12       1
    12   11   13       1
    13   12   17       1
    14   13   14       1
    15   13   15       1
    16   15   16       1
    17   15   17       1
    18   17   18       1
    19   18   19       1
    20   18   27       1
    21   19   20       2
    22   20   21       1
    23   21   22      ar
    24   21   27      ar
    25   22   23       1
    26   22   24      ar
    27   24   25      ar
    28   25   26      ar
    29   26   27      ar
    30   25   39       1
    31   23   38       1
    32   23   37       1
    33   10   28       1
    34   10   29       1
    35   11   30       1
    36   13   31       1
    37   14   32       1
    38   15   33       1
    39   16   34       1
    40   17   35       1
    41   19   36       1
@<TRIPOS>SUBSTRUCTURE
     1 ADP1903     1 GROUP             4 B     ADP     0 **** ADP B1903
