@<TRIPOS>MOLECULE
1irj_CPS_3_ligand
   79    82     1     0     0
SMALL
NO_CHARGES


@<TRIPOS>ATOM
     1 C1           7.3700    17.6550    31.8230 C.3          1 CPS389   0.0000
     2 C2           8.7390    18.2120    32.2210 C.3          1 CPS389   0.0000
     3 C3           9.9790    15.9930    31.9490 C.3          1 CPS389   0.0000
     4 C4          10.9860    14.7390    32.2250 C.3          1 CPS389   0.0000
     5 C5          12.3050    15.2810    32.6710 C.3          1 CPS389   0.0000
     6 C6          12.1120    16.3880    33.7100 C.3          1 CPS389   0.0000
     7 C7          13.4700    16.8460    34.1440 C.3          1 CPS389   0.0000
     8 C8          14.4210    15.5590    33.8010 C.3          1 CPS389   0.0000
     9 C9          13.3900    14.4720    33.1270 C.3          1 CPS389   0.0000
    10 C10         12.9330    16.1490    31.2780 C.3          1 CPS389   0.0000
    11 C11          9.5370    18.8390    30.9900 C.3          1 CPS389   0.0000
    12 C12          6.4730    17.2480    32.9760 C.3          1 CPS389   0.0000
    13 C13          6.2670    18.3080    33.9930 C.3          1 CPS389   0.0000
    14 C14          7.6460    18.8370    34.5420 C.3          1 CPS389   0.0000
    15 C15          8.5210    19.3000    33.3040 C.3          1 CPS389   0.0000
    16 C16          9.8040    19.8410    33.8120 C.3          1 CPS389   0.0000
    17 C17         10.8660    18.8880    34.3760 C.3          1 CPS389   0.0000
    18 C18         11.2350    17.6150    33.3970 C.3          1 CPS389   0.0000
    19 C19          9.6870    17.1410    32.8830 C.3          1 CPS389   0.0000
    20 C20         14.2590    13.5530    32.1390 C.3          1 CPS389   0.0000
    21 C21         13.5330    12.5430    31.2660 C.3          1 CPS389   0.0000
    22 C22         15.3770    12.8170    32.9630 C.3          1 CPS389   0.0000
    23 C23         16.2610    11.9800    32.1800 C.3          1 CPS389   0.0000
    24 C24         16.9890    10.9850    32.9260 C.2          1 CPS389   0.0000
    25 C25         15.6720     8.9070    32.5880 C.3          1 CPS389   0.0000
    26 C26         14.1410     8.8940    32.5510 C.3          1 CPS389   0.0000
    27 C27         13.5970     8.5170    33.9240 C.3          1 CPS389   0.0000
    28 N1          16.1390     9.9430    33.5220 N.am         1 CPS389   0.0000
    29 O1          18.2180    10.8650    32.8360 O.2          1 CPS389   0.0000
    30 O2           5.3930    17.8710    35.1710 O.3          1 CPS389   0.0000
    31 O3          10.5110    18.3160    35.5080 O.3          1 CPS389   0.0000
    32 O4          10.5360    14.1560    33.1900 O.3          1 CPS389   0.0000
    33 H1           7.5195    16.8497    31.2493 H            1 CPS389   0.0000
    34 H2           6.8932    18.3571    31.2942 H            1 CPS389   0.0000
    35 H3           9.0890    15.5746    31.7678 H            1 CPS389   0.0000
    36 H4          10.3225    16.4210    31.1131 H            1 CPS389   0.0000
    37 H5          11.0726    14.1410    31.4282 H            1 CPS389   0.0000
    38 H6          11.6995    15.9494    34.5084 H            1 CPS389   0.0000
    39 H7          13.4839    17.0523    35.1224 H            1 CPS389   0.0000
    40 H8          13.7585    17.6532    33.6290 H            1 CPS389   0.0000
    41 H9          14.8328    15.1893    34.6339 H            1 CPS389   0.0000
    42 H10         15.1424    15.8118    33.1563 H            1 CPS389   0.0000
    43 H11         13.0445    13.8865    33.8604 H            1 CPS389   0.0000
    44 H12         13.8236    16.5433    31.5047 H            1 CPS389   0.0000
    45 H13         13.0340    15.5173    30.5094 H            1 CPS389   0.0000
    46 H14         12.2988    16.8804    31.0273 H            1 CPS389   0.0000
    47 H15         10.4198    19.1857    31.3069 H            1 CPS389   0.0000
    48 H16          9.6852    18.1350    30.2955 H            1 CPS389   0.0000
    49 H17          9.0061    19.5893    30.5960 H            1 CPS389   0.0000
    50 H18          6.8837    16.4561    33.4279 H            1 CPS389   0.0000
    51 H19          5.5805    16.9936    32.6037 H            1 CPS389   0.0000
    52 H20          5.8071    19.0735    33.5430 H            1 CPS389   0.0000
    53 H21          8.1172    18.1065    35.0363 H            1 CPS389   0.0000
    54 H22          7.4922    19.6103    35.1571 H            1 CPS389   0.0000
    55 H23          8.0351    20.0569    32.8670 H            1 CPS389   0.0000
    56 H24          9.5771    20.4857    34.5420 H            1 CPS389   0.0000
    57 H25         10.2309    20.3332    33.0534 H            1 CPS389   0.0000
    58 H26         11.7025    19.4115    34.5382 H            1 CPS389   0.0000
    59 H27         11.6554    18.0287    32.5895 H            1 CPS389   0.0000
    60 H28          9.2085    16.7671    33.6775 H            1 CPS389   0.0000
    61 H29         14.7316    14.1765    31.5161 H            1 CPS389   0.0000
    62 H30         14.1975    12.0465    30.7075 H            1 CPS389   0.0000
    63 H31         13.0363    11.8973    31.8459 H            1 CPS389   0.0000
    64 H32         12.8874    13.0206    30.6701 H            1 CPS389   0.0000
    65 H33         14.9299    12.2413    33.6476 H            1 CPS389   0.0000
    66 H34         15.9320    13.5108    33.4219 H            1 CPS389   0.0000
    67 H35         16.9258    12.5730    31.7257 H            1 CPS389   0.0000
    68 H36         15.7101    11.5081    31.4916 H            1 CPS389   0.0000
    69 H37         16.0246     9.1019    31.6727 H            1 CPS389   0.0000
    70 H38         16.0044     8.0135    32.8900 H            1 CPS389   0.0000
    71 H39         13.8305     8.2253    31.8754 H            1 CPS389   0.0000
    72 H40         13.8069     9.8022    32.2990 H            1 CPS389   0.0000
    73 H41         12.5974     8.5096    33.8960 H            1 CPS389   0.0000
    74 H42         13.9301     7.6086    34.1766 H            1 CPS389   0.0000
    75 H43         13.9065     9.1855    34.6002 H            1 CPS389   0.0000
    76 H44         15.8961     9.9392    34.4921 H            1 CPS389   0.0000
    77 H45          4.7371    17.1823    34.8620 H            1 CPS389   0.0000
    78 H46         11.2435    17.7108    35.8197 H            1 CPS389   0.0000
    79 H47         11.1174    13.3718    33.4067 H            1 CPS389   0.0000
@<TRIPOS>BOND
     1    1    2       1
     2    1   12       1
     3    2   11       1
     4    2   15       1
     5    2   19       1
     6    3    4       1
     7    3   19       1
     8    4    5       1
     9    4   32       1
    10    5    6       1
    11    5    9       1
    12    5   10       1
    13    6    7       1
    14    6   18       1
    15    7    8       1
    16    8    9       1
    17    9   20       1
    18   12   13       1
    19   13   14       1
    20   13   30       1
    21   14   15       1
    22   15   16       1
    23   16   17       1
    24   17   18       1
    25   17   31       1
    26   18   19       1
    27   20   21       1
    28   20   22       1
    29   22   23       1
    30   23   24       1
    31   24   28      am
    32   24   29       2
    33   25   26       1
    34   25   28       1
    35   26   27       1
    36    1   33       1
    37    1   34       1
    38    3   35       1
    39    3   36       1
    40    4   37       1
    41    6   38       1
    42    7   39       1
    43    7   40       1
    44    8   41       1
    45    8   42       1
    46    9   43       1
    47   10   44       1
    48   10   45       1
    49   10   46       1
    50   11   47       1
    51   11   48       1
    52   11   49       1
    53   12   50       1
    54   12   51       1
    55   13   52       1
    56   14   53       1
    57   14   54       1
    58   15   55       1
    59   16   56       1
    60   16   57       1
    61   17   58       1
    62   18   59       1
    63   19   60       1
    64   20   61       1
    65   21   62       1
    66   21   63       1
    67   21   64       1
    68   22   65       1
    69   22   66       1
    70   23   67       1
    71   23   68       1
    72   25   69       1
    73   25   70       1
    74   26   71       1
    75   26   72       1
    76   27   73       1
    77   27   74       1
    78   27   75       1
    79   28   76       1
    80   30   77       1
    81   31   78       1
    82   32   79       1
@<TRIPOS>SUBSTRUCTURE
     1 CPS389      1 GROUP             4 D     CPS     0 **** CPS D 389
