@<TRIPOS>MOLECULE
4gt8_ADP_1_ligand
   39    41     1     0     0
SMALL
NO_CHARGES


@<TRIPOS>ATOM
     1 PB          17.7400    29.1020    35.8660 P.3          1 ADP401   0.0000
     2 O1B         19.1700    29.5580    35.6540 O.co2        1 ADP401   0.0000
     3 O2B         16.7990    29.4690    34.7530 O.co2        1 ADP401  -1.0000
     4 O3B         17.2450    29.4180    37.2580 O.co2        1 ADP401  -1.0000
     5 PA          17.6440    26.2820    36.6620 P.3          1 ADP401   0.0000
     6 O1A         18.6460    25.2110    36.2960 O.co2        1 ADP401   0.0000
     7 O2A         17.6130    26.7560    38.0850 O.co2        1 ADP401  -1.0000
     8 O3A         17.7910    27.4870    35.6200 O.3          1 ADP401   0.0000
     9 O5'         16.1690    25.7890    36.2090 O.3          1 ADP401   0.0000
    10 C5'         15.9810    25.3960    34.8490 C.3          1 ADP401   0.0000
    11 C4'         14.5940    25.7500    34.3380 C.3          1 ADP401   0.0000
    12 O4'         13.5920    24.9760    34.9990 O.3          1 ADP401   0.0000
    13 C3'         14.1990    27.1900    34.6180 C.3          1 ADP401   0.0000
    14 O3'         14.6940    28.0850    33.6170 O.3          1 ADP401   0.0000
    15 C2'         12.6910    27.1230    34.6220 C.3          1 ADP401   0.0000
    16 O2'         12.2090    27.0800    33.2760 O.3          1 ADP401   0.0000
    17 C1'         12.4010    25.7470    35.1710 C.3          1 ADP401   0.0000
    18 N9          12.0760    25.7950    36.6180 N.pl3        1 ADP401   0.0000
    19 C8          12.9410    25.5450    37.6160 C.2          1 ADP401   0.0000
    20 N7          12.3230    25.6250    38.8140 N.2          1 ADP401   0.0000
    21 C5          11.0330    25.9460    38.5810 C.ar         1 ADP401   0.0000
    22 C6           9.8500    26.1820    39.4070 C.ar         1 ADP401   0.0000
    23 N6           9.9240    26.0980    40.7510 N.pl3        1 ADP401   0.0000
    24 N1           8.6870    26.4580    38.7750 N.ar         1 ADP401   0.0000
    25 C2           8.6090    26.5490    37.4300 C.ar         1 ADP401   0.0000
    26 N3           9.6600    26.3540    36.6120 N.ar         1 ADP401   0.0000
    27 C4          10.8740    26.0470    37.1260 C.ar         1 ADP401   0.0000
    28 H5'1        16.1076    24.4065    34.7788 H            1 ADP401   0.0000
    29 H5'2        16.6616    25.8602    34.2822 H            1 ADP401   0.0000
    30 H4'         14.5495    25.5792    33.3537 H            1 ADP401   0.0000
    31 H3'         14.5316    27.4670    35.5194 H            1 ADP401   0.0000
    32 H5          15.2965    28.7604    34.0422 H            1 ADP401   0.0000
    33 H2'         12.2713    27.8528    35.1617 H            1 ADP401   0.0000
    34 H7          12.5037    27.9027    32.7899 H            1 ADP401   0.0000
    35 H1'         11.6468    25.3288    34.6648 H            1 ADP401   0.0000
    36 H9          13.9092    25.3294    37.4888 H            1 ADP401   0.0000
    37 H10          9.1095    26.2611    41.3078 H            1 ADP401   0.0000
    38 H11         10.7934    25.8726    41.1908 H            1 ADP401   0.0000
    39 H12          7.7246    26.7729    37.0205 H            1 ADP401   0.0000
@<TRIPOS>BOND
     1    1    2      ar
     2    1    3      ar
     3    1    4      ar
     4    1    8       1
     5    5    6      ar
     6    5    7      ar
     7    5    8       1
     8    5    9       1
     9    9   10       1
    10   10   11       1
    11   11   12       1
    12   11   13       1
    13   12   17       1
    14   13   14       1
    15   13   15       1
    16   15   16       1
    17   15   17       1
    18   17   18       1
    19   18   19       1
    20   18   27       1
    21   19   20       2
    22   20   21       1
    23   21   22      ar
    24   21   27      ar
    25   22   23       1
    26   22   24      ar
    27   24   25      ar
    28   25   26      ar
    29   26   27      ar
    30   25   39       1
    31   23   38       1
    32   23   37       1
    33   10   28       1
    34   10   29       1
    35   11   30       1
    36   13   31       1
    37   14   32       1
    38   15   33       1
    39   16   34       1
    40   17   35       1
    41   19   36       1
@<TRIPOS>SUBSTRUCTURE
     1 ADP401      1 GROUP             4 A     ADP     0 **** ADP A 401
