@<TRIPOS>MOLECULE
3lfm_3DT_1_ligand
   34    35     1     0     0
SMALL
NO_CHARGES


@<TRIPOS>ATOM
     1 N1          29.1080    -6.7830   -28.8720 N.pl3        1 3DT506   0.0000
     2 C2          28.5620    -7.3040   -27.6960 C.2          1 3DT506   0.0000
     3 O2          29.1680    -8.1660   -27.0600 O.2          1 3DT506   0.0000
     4 N3          27.2990    -6.8700   -27.2690 N.pl3        1 3DT506   0.0000
     5 C4          26.5910    -5.9280   -28.0240 C.2          1 3DT506   0.0000
     6 O4          25.4810    -5.5530   -27.6480 O.2          1 3DT506   0.0000
     7 C5          27.1390    -5.4170   -29.1970 C.2          1 3DT506   0.0000
     8 C6          28.3940    -5.8410   -29.6200 C.2          1 3DT506   0.0000
     9 C7          26.3670    -4.3940   -30.0300 C.3          1 3DT506   0.0000
    10 CN          26.7190    -7.3940   -26.0120 C.3          1 3DT506   0.0000
    11 C1'         30.4490    -7.2190   -29.3310 C.3          1 3DT506   0.0000
    12 C2'         30.3880    -8.2240   -30.4760 C.3          1 3DT506   0.0000
    13 C3'         31.8770    -8.2080   -30.8110 C.3          1 3DT506   0.0000
    14 O3'         32.6040    -8.8940   -29.7870 O.3          1 3DT506   0.0000
    15 C4'         32.1700    -6.7080   -30.7890 C.3          1 3DT506   0.0000
    16 O4'         31.2080    -6.1310   -29.8840 O.3          1 3DT506   0.0000
    17 C5'         31.9360    -6.0970   -32.1740 C.3          1 3DT506   0.0000
    18 O5'         30.6300    -6.4320   -32.6450 O.3          1 3DT506   0.0000
    19 H1          28.7874    -5.4712   -30.4617 H            1 3DT506   0.0000
    20 H2          26.9085    -4.1399   -30.8314 H            1 3DT506   0.0000
    21 H3          25.4992    -4.7925   -30.3268 H            1 3DT506   0.0000
    22 H4          26.1883    -3.5804   -29.4768 H            1 3DT506   0.0000
    23 HN1         25.8208    -6.9808   -25.8617 H            1 3DT506   0.0000
    24 HN2         26.6222    -8.3871   -26.0781 H            1 3DT506   0.0000
    25 HN3         27.3221    -7.1681   -25.2470 H            1 3DT506   0.0000
    26 H1'         30.9502    -7.6185   -28.5634 H            1 3DT506   0.0000
    27 H2'1        29.8209    -7.9056   -31.2356 H            1 3DT506   0.0000
    28 H2'2        30.0718    -9.1249   -30.1787 H            1 3DT506   0.0000
    29 H3'         32.0538    -8.6025   -31.7127 H            1 3DT506   0.0000
    30 H12         33.5795    -8.8834   -30.0067 H            1 3DT506   0.0000
    31 H4'         33.1032    -6.5323   -30.4757 H            1 3DT506   0.0000
    32 H5'1        32.6189    -6.4529   -32.8120 H            1 3DT506   0.0000
    33 H5'2        32.0212    -5.1024   -32.1152 H            1 3DT506   0.0000
    34 H5'         30.4880    -6.0285   -33.5489 H            1 3DT506   0.0000
@<TRIPOS>BOND
     1    1    2       1
     2    1    8       1
     3    1   11       1
     4    2    3       2
     5    2    4       1
     6    4    5       1
     7    4   10       1
     8    5    6       2
     9    5    7       1
    10    7    8       2
    11    7    9       1
    12   11   12       1
    13   11   16       1
    14   12   13       1
    15   13   14       1
    16   13   15       1
    17   15   16       1
    18   15   17       1
    19   17   18       1
    20    8   19       1
    21    9   20       1
    22    9   21       1
    23    9   22       1
    24   10   23       1
    25   10   24       1
    26   10   25       1
    27   11   26       1
    28   12   27       1
    29   12   28       1
    30   13   29       1
    31   14   30       1
    32   15   31       1
    33   17   32       1
    34   17   33       1
    35   18   34       1
@<TRIPOS>SUBSTRUCTURE
     1 3DT506      1 GROUP             4 A     3DT     0 **** 3DT A 506
