@<TRIPOS>MOLECULE
1ex7_5GP_1_ligand
   36    38     1     0     0
SMALL
NO_CHARGES


@<TRIPOS>ATOM
     1 P           29.9890    44.4020    69.9320 P.3          1 5GP187   0.0000
     2 O1P         28.6120    44.7950    69.3880 O.co2        1 5GP187   0.0000
     3 O2P         31.0120    44.4670    68.9670 O.co2        1 5GP187  -1.0000
     4 O3P         30.2960    44.9300    71.2260 O.co2        1 5GP187  -1.0000
     5 O5'         29.7180    42.9390    70.1180 O.3          1 5GP187   0.0000
     6 C5'         30.8120    42.1610    70.8220 C.3          1 5GP187   0.0000
     7 C4'         30.5800    40.6250    70.7150 C.3          1 5GP187   0.0000
     8 O4'         29.4740    40.1810    71.6030 O.3          1 5GP187   0.0000
     9 C3'         30.3850    40.0040    69.2910 C.3          1 5GP187   0.0000
    10 O3'         31.0570    38.7310    69.2990 O.3          1 5GP187   0.0000
    11 C2'         28.8910    39.7980    69.2490 C.3          1 5GP187   0.0000
    12 O2'         28.3870    38.6900    68.4610 O.3          1 5GP187   0.0000
    13 C1'         28.5260    39.5580    70.7040 C.3          1 5GP187   0.0000
    14 N9          27.1640    39.5430    71.1880 N.pl3        1 5GP187   0.0000
    15 C8          26.2730    40.5600    70.9580 C.2          1 5GP187   0.0000
    16 N7          25.1120    40.3530    71.5330 N.2          1 5GP187   0.0000
    17 C5          25.1790    39.0770    72.1180 C.2          1 5GP187   0.0000
    18 C6          24.1990    38.3360    72.8320 C.2          1 5GP187   0.0000
    19 O6          23.0620    38.7270    73.0740 O.2          1 5GP187   0.0000
    20 N1          24.7300    37.1880    73.3370 N.pl3        1 5GP187   0.0000
    21 C2          26.0000    36.7420    73.1720 C.2          1 5GP187   0.0000
    22 N2          26.3200    35.5050    73.6340 N.pl3        1 5GP187   0.0000
    23 N3          26.8940    37.3470    72.3750 N.2          1 5GP187   0.0000
    24 C4          26.4710    38.5490    71.9000 C.2          1 5GP187   0.0000
    25 H5'1        30.8257    42.4210    71.7875 H            1 5GP187   0.0000
    26 H5'2        31.6918    42.3866    70.4036 H            1 5GP187   0.0000
    27 H4'         31.4077    40.2011    71.0828 H            1 5GP187   0.0000
    28 H3'         30.7105    40.6057    68.5616 H            1 5GP187   0.0000
    29 H5          31.4673    38.5763    70.1977 H            1 5GP187   0.0000
    30 H2'         28.4546    40.6427    68.9391 H            1 5GP187   0.0000
    31 H7          27.5353    38.3548    68.8637 H            1 5GP187   0.0000
    32 H1'         28.7738    38.5945    70.8052 H            1 5GP187   0.0000
    33 H9          26.4850    41.3705    70.4119 H            1 5GP187   0.0000
    34 H10         24.1210    36.6153    73.8857 H            1 5GP187   0.0000
    35 H11         27.2503    35.1552    73.5235 H            1 5GP187   0.0000
    36 H12         25.6252    34.9444    74.0846 H            1 5GP187   0.0000
@<TRIPOS>BOND
     1    1    2      ar
     2    1    3      ar
     3    1    4      ar
     4    1    5       1
     5    5    6       1
     6    6    7       1
     7    7    8       1
     8    7    9       1
     9    8   13       1
    10    9   10       1
    11    9   11       1
    12   11   12       1
    13   11   13       1
    14   13   14       1
    15   14   15       1
    16   14   24       1
    17   15   16       2
    18   16   17       1
    19   17   18       1
    20   17   24       2
    21   18   19       2
    22   18   20       1
    23   20   21       1
    24   21   22       1
    25   21   23       2
    26   23   24       1
    27   22   36       1
    28   22   35       1
    29    6   25       1
    30    6   26       1
    31    7   27       1
    32    9   28       1
    33   10   29       1
    34   11   30       1
    35   12   31       1
    36   13   32       1
    37   15   33       1
    38   20   34       1
@<TRIPOS>SUBSTRUCTURE
     1 5GP187      1 GROUP             4 A     5GP     0 **** 5GP A 187
