@<TRIPOS>MOLECULE
4fey_ADP_1_ligand
   39    41     1     0     0
SMALL
NO_CHARGES


@<TRIPOS>ATOM
     1 PB          -6.7820    76.6230   -30.9750 P.3          1 ADP401   0.0000
     2 O1B         -6.9710    77.4840   -32.2060 O.co2        1 ADP401   0.0000
     3 O2B         -5.8260    75.4720   -31.1870 O.co2        1 ADP401  -1.0000
     4 O3B         -6.4720    77.4500   -29.7560 O.co2        1 ADP401  -1.0000
     5 PA          -8.4710    74.3470   -30.5720 P.3          1 ADP401   0.0000
     6 O1A         -7.8780    73.8520   -29.2720 O.co2        1 ADP401   0.0000
     7 O2A         -7.9770    73.7600   -31.8720 O.co2        1 ADP401  -1.0000
     8 O3A         -8.2280    75.9490   -30.6440 O.3          1 ADP401   0.0000
     9 O5'        -10.0740    74.1140   -30.5240 O.3          1 ADP401   0.0000
    10 C5'        -10.9950    75.2100   -30.4830 C.3          1 ADP401   0.0000
    11 C4'        -12.2350    74.9590   -31.3380 C.3          1 ADP401   0.0000
    12 O4'        -13.4070    74.8200   -30.5210 O.3          1 ADP401   0.0000
    13 C3'        -12.4870    76.1530   -32.2470 C.3          1 ADP401   0.0000
    14 O3'        -12.7930    75.6940   -33.5680 O.3          1 ADP401   0.0000
    15 C2'        -13.6940    76.8540   -31.6530 C.3          1 ADP401   0.0000
    16 O2'        -14.5340    77.5050   -32.6160 O.3          1 ADP401   0.0000
    17 C1'        -14.4280    75.7170   -30.9730 C.3          1 ADP401   0.0000
    18 N9         -15.2600    76.2440   -29.8640 N.pl3        1 ADP401   0.0000
    19 C8         -15.2380    77.5000   -29.3780 C.2          1 ADP401   0.0000
    20 N7         -16.1480    77.6600   -28.3870 N.2          1 ADP401   0.0000
    21 C5         -16.8270    76.5050   -28.2650 C.ar         1 ADP401   0.0000
    22 C6         -17.9190    75.9840   -27.3970 C.ar         1 ADP401   0.0000
    23 N6         -18.5500    76.7650   -26.4740 N.pl3        1 ADP401   0.0000
    24 N1         -18.2840    74.6900   -27.5840 N.ar         1 ADP401   0.0000
    25 C2         -17.7380    73.9120   -28.5460 C.ar         1 ADP401   0.0000
    26 N3         -16.7150    74.3030   -29.3340 N.ar         1 ADP401   0.0000
    27 C4         -16.2260    75.5680   -29.2440 C.ar         1 ADP401   0.0000
    28 H5'1       -10.5332    76.0306   -30.8197 H            1 ADP401   0.0000
    29 H5'2       -11.2815    75.3537   -29.5358 H            1 ADP401   0.0000
    30 H4'        -12.1059    74.1345   -31.8890 H            1 ADP401   0.0000
    31 H3'        -11.6942    76.7623   -32.2589 H            1 ADP401   0.0000
    32 H5         -12.1178    76.0552   -34.2111 H            1 ADP401   0.0000
    33 H2'        -13.3933    77.5169   -30.9674 H            1 ADP401   0.0000
    34 H7         -14.1559    77.3720   -33.5322 H            1 ADP401   0.0000
    35 H1'        -15.0124    75.2512   -31.6375 H            1 ADP401   0.0000
    36 H9         -14.6285    78.2216   -29.7063 H            1 ADP401   0.0000
    37 H10        -19.2795    76.3803   -25.9084 H            1 ADP401   0.0000
    38 H11        -18.2832    77.7223   -26.3628 H            1 ADP401   0.0000
    39 H12        -18.1137    72.9951   -28.6809 H            1 ADP401   0.0000
@<TRIPOS>BOND
     1    1    2      ar
     2    1    3      ar
     3    1    4      ar
     4    1    8       1
     5    5    6      ar
     6    5    7      ar
     7    5    8       1
     8    5    9       1
     9    9   10       1
    10   10   11       1
    11   11   12       1
    12   11   13       1
    13   12   17       1
    14   13   14       1
    15   13   15       1
    16   15   16       1
    17   15   17       1
    18   17   18       1
    19   18   19       1
    20   18   27       1
    21   19   20       2
    22   20   21       1
    23   21   22      ar
    24   21   27      ar
    25   22   23       1
    26   22   24      ar
    27   24   25      ar
    28   25   26      ar
    29   26   27      ar
    30   25   39       1
    31   23   38       1
    32   23   37       1
    33   10   28       1
    34   10   29       1
    35   11   30       1
    36   13   31       1
    37   14   32       1
    38   15   33       1
    39   16   34       1
    40   17   35       1
    41   19   36       1
@<TRIPOS>SUBSTRUCTURE
     1 ADP401      1 GROUP             4 A     ADP     0 **** ADP A 401
