@<TRIPOS>MOLECULE
2bsl_FMN_2_ligand
   50    52     1     0     0
SMALL
NO_CHARGES


@<TRIPOS>ATOM
     1 N1           4.0110    16.4050    18.2700 N.2          1 FMN1312   0.0000
     2 C2           5.0990    15.5990    18.3500 C.2          1 FMN1312   0.0000
     3 O2           6.0700    15.7650    17.5930 O.2          1 FMN1312   0.0000
     4 N3           5.1120    14.6090    19.2990 N.pl3        1 FMN1312   0.0000
     5 C4           4.0500    14.4150    20.1260 C.2          1 FMN1312   0.0000
     6 O4           3.8870    13.2850    20.5790 O.2          1 FMN1312   0.0000
     7 C4A          2.9530    15.2540    20.0350 C.2          1 FMN1312   0.0000
     8 N5           1.8410    15.0610    20.8510 N.2          1 FMN1312   0.0000
     9 C5A          0.7700    15.8850    20.7200 C.ar         1 FMN1312   0.0000
    10 C6          -0.3190    15.7290    21.5160 C.ar         1 FMN1312   0.0000
    11 C7          -1.4470    16.5450    21.2990 C.ar         1 FMN1312   0.0000
    12 C7M         -2.7870    15.9890    21.7040 C.3          1 FMN1312   0.0000
    13 C8          -1.4280    17.5390    20.3070 C.ar         1 FMN1312   0.0000
    14 C8M         -2.6830    18.1190    19.7120 C.3          1 FMN1312   0.0000
    15 C9          -0.3160    17.7080    19.5520 C.ar         1 FMN1312   0.0000
    16 C9A          0.7730    16.8820    19.7350 C.ar         1 FMN1312   0.0000
    17 N10          1.8680    17.0740    18.9660 N.pl3        1 FMN1312   0.0000
    18 C10          2.9620    16.2580    19.1050 C.2          1 FMN1312   0.0000
    19 C1'          1.9460    18.3030    18.1070 C.3          1 FMN1312   0.0000
    20 C2'          1.3400    17.9800    16.7600 C.3          1 FMN1312   0.0000
    21 O2'          2.1330    16.9160    16.2300 O.3          1 FMN1312   0.0000
    22 C3'          1.3610    19.2160    15.8500 C.3          1 FMN1312   0.0000
    23 O3'          2.6760    19.6860    15.6630 O.3          1 FMN1312   0.0000
    24 C4'          0.4730    20.3510    16.3210 C.3          1 FMN1312   0.0000
    25 O4'         -0.7350    19.7990    16.8060 O.3          1 FMN1312   0.0000
    26 C5'          0.2480    21.3040    15.1370 C.3          1 FMN1312   0.0000
    27 O5'         -0.6400    20.7060    14.2310 O.3          1 FMN1312   0.0000
    28 P           -2.2490    21.0410    14.3050 P.3          1 FMN1312   0.0000
    29 O1P         -2.8170    20.5860    15.6440 O.co2        1 FMN1312   0.0000
    30 O2P         -2.4080    22.5160    14.1220 O.co2        1 FMN1312  -1.0000
    31 O3P         -2.8910    20.3670    13.1210 O.co2        1 FMN1312  -1.0000
    32 H1           5.9157    14.0201    19.3843 H            1 FMN1312   0.0000
    33 H2          -0.3204    15.0450    22.2455 H            1 FMN1312   0.0000
    34 H7M1        -3.5012    16.6586    21.5001 H            1 FMN1312   0.0000
    35 H7M2        -2.9655    15.1462    21.1962 H            1 FMN1312   0.0000
    36 H7M3        -2.7840    15.7930    22.6846 H            1 FMN1312   0.0000
    37 H8M1        -2.4405    18.8072    19.0282 H            1 FMN1312   0.0000
    38 H8M2        -3.2138    17.3908    19.2784 H            1 FMN1312   0.0000
    39 H8M3        -3.2285    18.5444    20.4341 H            1 FMN1312   0.0000
    40 H9          -0.2848    18.4314    18.8623 H            1 FMN1312   0.0000
    41 H1'1         2.9014    18.5748    17.9915 H            1 FMN1312   0.0000
    42 H1'2         1.4369    19.0488    18.5367 H            1 FMN1312   0.0000
    43 H2'          0.3976    17.6683    16.8816 H            1 FMN1312   0.0000
    44 H13          2.0916    16.1301    16.8470 H            1 FMN1312   0.0000
    45 H3'          1.0210    18.9283    14.9547 H            1 FMN1312   0.0000
    46 H15          2.7509    20.1181    14.7643 H            1 FMN1312   0.0000
    47 H4'          0.9313    20.8445    17.0602 H            1 FMN1312   0.0000
    48 H17         -1.5024    20.1572    16.2741 H            1 FMN1312   0.0000
    49 H5'1         1.1199    21.4848    14.6819 H            1 FMN1312   0.0000
    50 H5'2        -0.1398    22.1642    15.4682 H            1 FMN1312   0.0000
@<TRIPOS>BOND
     1    1    2       1
     2    1   18       2
     3    2    3       2
     4    2    4       1
     5    4    5       1
     6    5    6       2
     7    5    7       1
     8    7    8       2
     9    7   18       1
    10    8    9       1
    11    9   10      ar
    12    9   16      ar
    13   10   11      ar
    14   11   12       1
    15   11   13      ar
    16   13   14       1
    17   13   15      ar
    18   15   16      ar
    19   16   17       1
    20   17   18       1
    21   17   19       1
    22   19   20       1
    23   20   21       1
    24   20   22       1
    25   22   23       1
    26   22   24       1
    27   24   25       1
    28   24   26       1
    29   26   27       1
    30   27   28       1
    31   28   29      ar
    32   28   30      ar
    33   28   31      ar
    34    4   32       1
    35   10   33       1
    36   12   34       1
    37   12   35       1
    38   12   36       1
    39   14   37       1
    40   14   38       1
    41   14   39       1
    42   15   40       1
    43   19   41       1
    44   19   42       1
    45   20   43       1
    46   21   44       1
    47   22   45       1
    48   23   46       1
    49   24   47       1
    50   25   48       1
    51   26   49       1
    52   26   50       1
@<TRIPOS>SUBSTRUCTURE
     1 FMN1312     1 GROUP             4 B     FMN     0 **** FMN B1312
