@<TRIPOS>MOLECULE
5e72_SAM_1_ligand
   49    51     1     0     0
SMALL
NO_CHARGES


@<TRIPOS>ATOM
     1 N          -13.7730    -6.0970    14.2140 N.3          1 SAM400   0.0000
     2 CA         -12.3050    -6.2790    14.1140 C.3          1 SAM400   0.0000
     3 C          -11.8620    -6.5460    12.6960 C.2          1 SAM400   0.0000
     4 O          -11.7640    -5.6250    11.8880 O.co2        1 SAM400   0.0000
     5 OXT        -11.5640    -7.6760    12.3380 O.co2        1 SAM400  -1.0000
     6 CB         -11.5650    -7.2790    15.0470 C.3          1 SAM400   0.0000
     7 CG         -11.9550    -8.7360    15.2400 C.3          1 SAM400   0.0000
     8 SD         -10.9510    -9.6610    16.4370 S.3          1 SAM400   1.0000
     9 CE         -11.0900   -11.3020    15.6990 C.3          1 SAM400   0.0000
    10 C5'        -12.0600    -9.8090    17.8630 C.3          1 SAM400   0.0000
    11 C4'        -11.5710    -8.9320    19.0220 C.3          1 SAM400   0.0000
    12 O4'        -12.5380    -8.8730    20.0480 O.3          1 SAM400   0.0000
    13 C3'        -10.2960    -9.4410    19.6910 C.3          1 SAM400   0.0000
    14 O3'         -9.2740    -8.4820    19.5210 O.3          1 SAM400   0.0000
    15 C2'        -10.6460    -9.6020    21.1710 C.3          1 SAM400   0.0000
    16 O2'         -9.6410    -9.1860    22.0830 O.3          1 SAM400   0.0000
    17 C1'        -11.8510    -8.6990    21.2860 C.3          1 SAM400   0.0000
    18 N9         -12.8010    -9.0090    22.3610 N.pl3        1 SAM400   0.0000
    19 C8         -13.1660   -10.2220    22.8690 C.2          1 SAM400   0.0000
    20 N7         -14.1250   -10.0150    23.7980 N.2          1 SAM400   0.0000
    21 C5         -14.3820    -8.6850    23.8800 C.ar         1 SAM400   0.0000
    22 C6         -15.2590    -7.9160    24.6400 C.ar         1 SAM400   0.0000
    23 N6         -16.0830    -8.4640    25.5410 N.pl3        1 SAM400   0.0000
    24 N1         -15.2750    -6.5490    24.4630 N.ar         1 SAM400   0.0000
    25 C2         -14.4410    -5.9440    23.5470 C.ar         1 SAM400   0.0000
    26 N3         -13.5800    -6.7050    22.8010 N.ar         1 SAM400   0.0000
    27 C4         -13.5570    -8.0500    22.9660 C.ar         1 SAM400   0.0000
    28 H1         -14.0865    -6.4039    15.1126 H            1 SAM400   0.0000
    29 HA         -11.9194    -5.3842    14.3393 H            1 SAM400   0.0000
    30 HB1        -11.5992    -6.8698    15.9588 H            1 SAM400   0.0000
    31 HB2        -10.6186    -7.2958    14.7244 H            1 SAM400   0.0000
    32 HG1        -11.8799    -9.1950    14.3548 H            1 SAM400   0.0000
    33 HG2        -12.9055    -8.7622    15.5495 H            1 SAM400   0.0000
    34 HE1        -10.5772   -11.9600    16.2504 H            1 SAM400   0.0000
    35 HE2        -12.0522   -11.5725    15.6666 H            1 SAM400   0.0000
    36 HE3        -10.7177   -11.2828    14.7711 H            1 SAM400   0.0000
    37 H5'1       -12.0858   -10.7631    18.1613 H            1 SAM400   0.0000
    38 H5'2       -12.9788    -9.5182    17.5961 H            1 SAM400   0.0000
    39 H4'        -11.4078    -8.0068    18.6794 H            1 SAM400   0.0000
    40 H3'        -10.0212   -10.3188    19.2987 H            1 SAM400   0.0000
    41 H14         -9.5538    -7.6187    19.9410 H            1 SAM400   0.0000
    42 H2'        -10.9085   -10.5484    21.3595 H            1 SAM400   0.0000
    43 H16         -9.7716    -8.2197    22.3050 H            1 SAM400   0.0000
    44 H1'        -11.5497    -7.7492    21.3701 H            1 SAM400   0.0000
    45 H18        -12.7896   -11.1087    22.6006 H            1 SAM400   0.0000
    46 H19        -16.7013    -7.8838    26.0712 H            1 SAM400   0.0000
    47 H20        -16.0804    -9.4537    25.6841 H            1 SAM400   0.0000
    48 H21        -14.4645    -4.9515    23.4273 H            1 SAM400   0.0000
    49 H22        -13.9979    -5.1299    14.0950 H            1 SAM400   0.0000
@<TRIPOS>BOND
     1    1    2       1
     2    2    3       1
     3    2    6       1
     4    3    4      ar
     5    3    5      ar
     6    6    7       1
     7    7    8       1
     8    8    9       1
     9    8   10       1
    10   10   11       1
    11   11   12       1
    12   11   13       1
    13   12   17       1
    14   13   14       1
    15   13   15       1
    16   15   16       1
    17   15   17       1
    18   17   18       1
    19   18   19       1
    20   18   27       1
    21   19   20       2
    22   20   21       1
    23   21   22      ar
    24   21   27      ar
    25   22   23       1
    26   22   24      ar
    27   24   25      ar
    28   25   26      ar
    29   26   27      ar
    30   25   48       1
    31    1   28       1
    32    2   29       1
    33    1   49       1
    34    6   30       1
    35    6   31       1
    36    7   32       1
    37    7   33       1
    38    9   34       1
    39    9   35       1
    40    9   36       1
    41   10   37       1
    42   10   38       1
    43   11   39       1
    44   13   40       1
    45   14   41       1
    46   15   42       1
    47   16   43       1
    48   17   44       1
    49   19   45       1
    50   23   46       1
    51   23   47       1
@<TRIPOS>SUBSTRUCTURE
     1 SAM400      1 GROUP             4 A     SAM     0 **** SAM A 400
