@<TRIPOS>MOLECULE
2vou_FAD_2_ligand
   84    89     1     0     0
SMALL
NO_CHARGES


@<TRIPOS>ATOM
     1 PA          27.8500   145.4880    43.6500 P.3          1 FAD1389   0.0000
     2 O1A         27.7100   144.4530    42.5740 O.co2        1 FAD1389   0.0000
     3 O2A         26.5620   145.9760    44.2830 O.co2        1 FAD1389  -1.0000
     4 O5B         28.6110   146.7880    43.1080 O.3          1 FAD1389   0.0000
     5 C5B         29.8910   146.8010    42.5280 C.3          1 FAD1389   0.0000
     6 C4B         30.0590   148.1590    41.8360 C.3          1 FAD1389   0.0000
     7 O4B         31.3530   148.3000    41.2600 O.3          1 FAD1389   0.0000
     8 C3B         29.0310   148.4140    40.7290 C.3          1 FAD1389   0.0000
     9 O3B         28.5240   149.7280    40.9150 O.3          1 FAD1389   0.0000
    10 C2B         29.8400   148.3560    39.4450 C.3          1 FAD1389   0.0000
    11 O2B         29.3310   149.2120    38.4350 O.3          1 FAD1389   0.0000
    12 C1B         31.2290   148.7770    39.9370 C.3          1 FAD1389   0.0000
    13 N9A         32.3290   148.2540    39.1200 N.pl3        1 FAD1389   0.0000
    14 C8A         32.4630   147.0030    38.5780 C.2          1 FAD1389   0.0000
    15 N7A         33.6330   146.9430    37.8910 N.2          1 FAD1389   0.0000
    16 C5A         34.2440   148.1530    37.9960 C.ar         1 FAD1389   0.0000
    17 C6A         35.4460   148.6540    37.5000 C.ar         1 FAD1389   0.0000
    18 N6A         36.3510   147.8210    37.0080 N.pl3        1 FAD1389   0.0000
    19 N1A         35.8100   149.9580    37.7710 N.ar         1 FAD1389   0.0000
    20 C2A         34.9860   150.7640    38.5350 C.ar         1 FAD1389   0.0000
    21 N3A         33.7980   150.2560    39.0340 N.ar         1 FAD1389   0.0000
    22 C4A         33.4330   148.9780    38.7690 C.ar         1 FAD1389   0.0000
    23 N1          21.7480   141.0780    49.6930 N.2          1 FAD1389   0.0000
    24 C2          21.1430   141.1330    50.9300 C.2          1 FAD1389   0.0000
    25 O2          21.7470   141.6150    51.9010 O.2          1 FAD1389   0.0000
    26 N3          19.8560   140.6620    51.0810 N.pl3        1 FAD1389   0.0000
    27 C4          19.1740   140.1430    50.0160 C.2          1 FAD1389   0.0000
    28 O4          18.0240   139.7420    50.1800 O.2          1 FAD1389   0.0000
    29 C4X         19.7760   140.0890    48.7700 C.2          1 FAD1389   0.0000
    30 N5          19.0840   139.5570    47.6960 N.2          1 FAD1389   0.0000
    31 C5X         19.7050   139.4820    46.4710 C.ar         1 FAD1389   0.0000
    32 C6          19.0250   138.9430    45.3910 C.ar         1 FAD1389   0.0000
    33 C7          19.6360   138.8710    44.1280 C.ar         1 FAD1389   0.0000
    34 C7M         19.0300   137.9580    43.0880 C.3          1 FAD1389   0.0000
    35 C8          20.9590   139.3390    43.9640 C.ar         1 FAD1389   0.0000
    36 C8M         21.7550   139.0670    42.6910 C.3          1 FAD1389   0.0000
    37 C9          21.6250   139.8810    45.0700 C.ar         1 FAD1389   0.0000
    38 C9A         21.0100   139.9530    46.3060 C.ar         1 FAD1389   0.0000
    39 N10         21.7050   140.4980    47.3740 N.pl3        1 FAD1389   0.0000
    40 C10         21.0790   140.5610    48.6130 C.2          1 FAD1389   0.0000
    41 C1'         23.1920   140.6780    47.2380 C.3          1 FAD1389   0.0000
    42 C2'         23.6320   142.1290    47.1630 C.3          1 FAD1389   0.0000
    43 O2'         22.8640   142.7690    46.1930 O.3          1 FAD1389   0.0000
    44 C3'         25.1030   142.2400    46.7940 C.3          1 FAD1389   0.0000
    45 O3'         25.8430   141.4310    47.6930 O.3          1 FAD1389   0.0000
    46 C4'         25.6170   143.6800    46.8790 C.3          1 FAD1389   0.0000
    47 O4'         25.1060   144.5060    45.8500 O.3          1 FAD1389   0.0000
    48 C5'         27.1430   143.6960    46.8290 C.3          1 FAD1389   0.0000
    49 O5'         27.5950   145.0180    46.9400 O.3          1 FAD1389   0.0000
    50 P           28.9670   145.4030    46.2340 P.3          1 FAD1389   0.0000
    51 O1P         29.0820   146.9100    46.2790 O.co2        1 FAD1389   0.0000
    52 O2P         30.1660   144.6520    46.7610 O.co2        1 FAD1389  -1.0000
    53 O3P         28.7960   144.8370    44.7470 O.3          1 FAD1389   0.0000
    54 H5B1        29.9717   146.0626    41.8585 H            1 FAD1389   0.0000
    55 H5B2        30.5891   146.6877    43.2350 H            1 FAD1389   0.0000
    56 H4B         29.9503   148.8729    42.5278 H            1 FAD1389   0.0000
    57 H3B         28.3008   147.7309    40.7375 H            1 FAD1389   0.0000
    58 H5          29.2742   150.3864    40.8547 H            1 FAD1389   0.0000
    59 H2B         29.8715   147.4153    39.1071 H            1 FAD1389   0.0000
    60 H7          29.7611   150.1115    38.5124 H            1 FAD1389   0.0000
    61 H1B         31.2798   149.7757    39.9470 H            1 FAD1389   0.0000
    62 H8A         31.8059   146.2552    38.6728 H            1 FAD1389   0.0000
    63 H6A1        37.2151   148.1756    36.6509 H            1 FAD1389   0.0000
    64 H6A2        36.1700   146.8376    36.9937 H            1 FAD1389   0.0000
    65 H2A         35.2469   151.7102    38.7265 H            1 FAD1389   0.0000
    66 H13         19.4170   140.7004    51.9787 H            1 FAD1389   0.0000
    67 H14         18.0924   138.6027    45.5113 H            1 FAD1389   0.0000
    68 H7M1        19.5667   138.0095    42.2458 H            1 FAD1389   0.0000
    69 H7M2        19.0326   137.0175    43.4279 H            1 FAD1389   0.0000
    70 H7M3        18.0896   138.2426    42.9019 H            1 FAD1389   0.0000
    71 H8M1        22.6627   139.4789    42.7711 H            1 FAD1389   0.0000
    72 H8M2        21.8472   138.0799    42.5600 H            1 FAD1389   0.0000
    73 H8M3        21.2768   139.4639    41.9076 H            1 FAD1389   0.0000
    74 H21         22.5594   140.2211    44.9642 H            1 FAD1389   0.0000
    75 H1'1        23.4901   140.2151    46.4032 H            1 FAD1389   0.0000
    76 H1'2        23.6339   140.2555    48.0294 H            1 FAD1389   0.0000
    77 H2'         23.4790   142.5674    48.0487 H            1 FAD1389   0.0000
    78 H25         23.3974   143.5064    45.7785 H            1 FAD1389   0.0000
    79 H3'         25.2340   141.8996    45.8629 H            1 FAD1389   0.0000
    80 H27         26.6632   141.0882    47.2351 H            1 FAD1389   0.0000
    81 H4'         25.3298   144.0623    47.7573 H            1 FAD1389   0.0000
    82 H29         25.8631   144.8674    45.3057 H            1 FAD1389   0.0000
    83 H5'1        27.4531   143.3085    45.9608 H            1 FAD1389   0.0000
    84 H5'2        27.5079   143.1533    47.5855 H            1 FAD1389   0.0000
@<TRIPOS>BOND
     1    1    2      ar
     2    1    3      ar
     3    1    4       1
     4    1   53       1
     5    4    5       1
     6    5    6       1
     7    6    7       1
     8    6    8       1
     9    7   12       1
    10    8    9       1
    11    8   10       1
    12   10   11       1
    13   10   12       1
    14   12   13       1
    15   13   14       1
    16   13   22       1
    17   14   15       2
    18   15   16       1
    19   16   17      ar
    20   16   22      ar
    21   17   18       1
    22   17   19      ar
    23   19   20      ar
    24   20   21      ar
    25   21   22      ar
    26   23   24       1
    27   23   40       2
    28   24   25       2
    29   24   26       1
    30   26   27       1
    31   27   28       2
    32   27   29       1
    33   29   30       2
    34   29   40       1
    35   30   31       1
    36   31   32      ar
    37   31   38      ar
    38   32   33      ar
    39   33   34       1
    40   33   35      ar
    41   35   36       1
    42   35   37      ar
    43   37   38      ar
    44   38   39       1
    45   39   40       1
    46   39   41       1
    47   41   42       1
    48   42   43       1
    49   42   44       1
    50   44   45       1
    51   44   46       1
    52   46   47       1
    53   46   48       1
    54   48   49       1
    55   49   50       1
    56   50   51      ar
    57   50   52      ar
    58   50   53       1
    59   48   84       1
    60    5   54       1
    61    5   55       1
    62    6   56       1
    63    8   57       1
    64    9   58       1
    65   10   59       1
    66   11   60       1
    67   12   61       1
    68   14   62       1
    69   18   63       1
    70   18   64       1
    71   20   65       1
    72   26   66       1
    73   32   67       1
    74   34   68       1
    75   34   69       1
    76   34   70       1
    77   36   71       1
    78   36   72       1
    79   36   73       1
    80   37   74       1
    81   41   75       1
    82   41   76       1
    83   42   77       1
    84   43   78       1
    85   44   79       1
    86   45   80       1
    87   46   81       1
    88   47   82       1
    89   48   83       1
@<TRIPOS>SUBSTRUCTURE
     1 FAD1389     1 GROUP             4 B     FAD     0 **** FAD B1389
