@<TRIPOS>MOLECULE
1j5p_NAD_1_ligand
   70    74     1     0     0
SMALL
NO_CHARGES


@<TRIPOS>ATOM
     1 PA          20.5830     8.6820    24.8920 P.3          1 NAD300   0.0000
     2 O1A         20.5120     7.8880    23.6300 O.co2        1 NAD300   0.0000
     3 O2A         20.5970     7.9080    26.1340 O.co2        1 NAD300  -1.0000
     4 O5B         19.3840     9.7410    24.9190 O.3          1 NAD300   0.0000
     5 C5B         19.1620    10.6150    23.8240 C.3          1 NAD300   0.0000
     6 C4B         17.7050    10.8980    23.7110 C.3          1 NAD300   0.0000
     7 O4B         17.6110    11.8080    22.6090 O.3          1 NAD300   0.0000
     8 C3B         16.8350     9.6720    23.3460 C.3          1 NAD300   0.0000
     9 O3B         15.7410     9.4450    24.2890 O.3          1 NAD300   0.0000
    10 C2B         16.3170     9.9800    21.9280 C.3          1 NAD300   0.0000
    11 O2B         15.0080     9.4230    21.5890 O.3          1 NAD300   0.0000
    12 C1B         16.3930    11.5100    21.9140 C.3          1 NAD300   0.0000
    13 N9A         16.4930    12.1210    20.5600 N.pl3        1 NAD300   0.0000
    14 C8A         17.3850    11.7930    19.5860 C.2          1 NAD300   0.0000
    15 N7A         17.2140    12.5320    18.4830 N.2          1 NAD300   0.0000
    16 C5A         16.2020    13.3170    18.8010 C.ar         1 NAD300   0.0000
    17 C6A         15.6310    14.2980    17.9580 C.ar         1 NAD300   0.0000
    18 N6A         16.1100    14.4860    16.7280 N.pl3        1 NAD300   0.0000
    19 N1A         14.5810    15.0280    18.4590 N.ar         1 NAD300   0.0000
    20 C2A         14.1200    14.8050    19.7150 C.ar         1 NAD300   0.0000
    21 N3A         14.6690    13.8610    20.5180 N.ar         1 NAD300   0.0000
    22 C4A         15.7200    13.0930    20.0940 C.ar         1 NAD300   0.0000
    23 O3          21.8400     9.6790    24.8330 O.3          1 NAD300   0.0000
    24 PN          22.6900    10.4770    25.9130 P.3          1 NAD300   0.0000
    25 O1N         23.7500     9.5970    26.4660 O.co2        1 NAD300   0.0000
    26 O2N         21.7970    11.1650    26.8780 O.co2        1 NAD300  -1.0000
    27 O5D         23.4210    11.6140    25.0470 O.3          1 NAD300   0.0000
    28 C5D         22.6930    12.6230    24.3700 C.3          1 NAD300   0.0000
    29 C4D         23.6220    13.2350    23.3140 C.3          1 NAD300   0.0000
    30 O4D         24.7660    13.8520    23.9460 O.3          1 NAD300   0.0000
    31 C3D         24.1910    12.2370    22.2630 C.3          1 NAD300   0.0000
    32 O3D         24.1660    12.7700    20.9150 O.3          1 NAD300   0.0000
    33 C2D         25.6070    11.9850    22.7210 C.3          1 NAD300   0.0000
    34 O2D         26.4910    11.5620    21.7050 O.3          1 NAD300   0.0000
    35 C1D         25.9580    13.3440    23.3170 C.3          1 NAD300   0.0000
    36 N1N         27.0520    13.3570    24.3090 N.ar         1 NAD300   1.0000
    37 C2N         28.0730    14.3370    24.1980 C.ar         1 NAD300   0.0000
    38 C3N         29.1280    14.3720    25.1330 C.ar         1 NAD300   0.0000
    39 C7N         30.2660    15.4370    25.0440 C.2          1 NAD300   0.0000
    40 O7N         31.3490    15.2360    25.5860 O.2          1 NAD300   0.0000
    41 N7N         30.0240    16.5650    24.3480 N.am         1 NAD300   0.0000
    42 C4N         29.1420    13.4030    26.1810 C.ar         1 NAD300   0.0000
    43 C5N         28.1210    12.4190    26.2950 C.ar         1 NAD300   0.0000
    44 C6N         27.0660    12.3850    25.3630 C.ar         1 NAD300   0.0000
    45 H5B1        19.4854    10.1843    22.9814 H            1 NAD300   0.0000
    46 H5B2        19.6583    11.4703    23.9728 H            1 NAD300   0.0000
    47 H4B         17.3674    11.3282    24.5482 H            1 NAD300   0.0000
    48 H3B         17.4140     8.8573    23.3136 H            1 NAD300   0.0000
    49 H5          15.1435    10.2467    24.3056 H            1 NAD300   0.0000
    50 H2B         16.9839     9.6295    21.2704 H            1 NAD300   0.0000
    51 H7          14.2934    10.0783    21.8337 H            1 NAD300   0.0000
    52 H1B         15.6137    11.8963    22.4074 H            1 NAD300   0.0000
    53 H8A         18.0844    11.0848    19.6827 H            1 NAD300   0.0000
    54 H6A1        15.7041    15.1806    16.1341 H            1 NAD300   0.0000
    55 H6A2        16.8752    13.9324    16.3994 H            1 NAD300   0.0000
    56 H2A         13.3554    15.3511    20.0574 H            1 NAD300   0.0000
    57 H5D1        22.4026    13.3271    25.0180 H            1 NAD300   0.0000
    58 H5D2        21.8892    12.2251    23.9277 H            1 NAD300   0.0000
    59 H4D         23.1144    13.9454    22.8264 H            1 NAD300   0.0000
    60 H3D         23.6712    11.3833    22.2956 H            1 NAD300   0.0000
    61 H17         24.2623    13.7648    20.9481 H            1 NAD300   0.0000
    62 H2D         25.5972    11.3013    23.4507 H            1 NAD300   0.0000
    63 H19         26.8607    10.6626    21.9380 H            1 NAD300   0.0000
    64 H1D         26.2052    13.9602    22.5692 H            1 NAD300   0.0000
    65 H2N         28.0440    15.0048    23.4542 H            1 NAD300   0.0000
    66 H7N1        30.7320    17.2671    24.2718 H            1 NAD300   0.0000
    67 H7N2        29.1364    16.7001    23.9077 H            1 NAD300   0.0000
    68 H4N         29.8856    13.4161    26.8495 H            1 NAD300   0.0000
    69 H5N         28.1526    11.7505    27.0380 H            1 NAD300   0.0000
    70 H6N         26.3426    11.6982    25.4346 H            1 NAD300   0.0000
@<TRIPOS>BOND
     1    1    2      ar
     2    1    3      ar
     3    1    4       1
     4    1   23       1
     5    4    5       1
     6    5    6       1
     7    6    7       1
     8    6    8       1
     9    7   12       1
    10    8    9       1
    11    8   10       1
    12   10   11       1
    13   10   12       1
    14   12   13       1
    15   13   14       1
    16   13   22       1
    17   14   15       2
    18   15   16       1
    19   16   17      ar
    20   16   22      ar
    21   17   18       1
    22   17   19      ar
    23   19   20      ar
    24   20   21      ar
    25   21   22      ar
    26   23   24       1
    27   24   25      ar
    28   24   26      ar
    29   24   27       1
    30   27   28       1
    31   28   29       1
    32   29   30       1
    33   29   31       1
    34   30   35       1
    35   31   32       1
    36   31   33       1
    37   33   34       1
    38   33   35       1
    39   35   36       1
    40   36   37      ar
    41   36   44      ar
    42   37   38      ar
    43   38   39       1
    44   38   42      ar
    45   39   40       2
    46   39   41      am
    47   42   43      ar
    48   43   44      ar
    49   44   70       1
    50    5   45       1
    51    5   46       1
    52    6   47       1
    53    8   48       1
    54    9   49       1
    55   10   50       1
    56   11   51       1
    57   12   52       1
    58   14   53       1
    59   18   54       1
    60   18   55       1
    61   20   56       1
    62   43   69       1
    63   28   57       1
    64   28   58       1
    65   29   59       1
    66   31   60       1
    67   32   61       1
    68   33   62       1
    69   34   63       1
    70   35   64       1
    71   37   65       1
    72   41   66       1
    73   41   67       1
    74   42   68       1
@<TRIPOS>SUBSTRUCTURE
     1 NAD300      1 GROUP             4 A     NAD     0 **** NAD A 300
