@<TRIPOS>MOLECULE
2h39_ADQ_2_ligand
   61    64     1     0     0
SMALL
NO_CHARGES


@<TRIPOS>ATOM
     1 PB          30.1810    -3.3750   -24.3350 P.3          1 ADQ507   0.0000
     2 O1B         31.0780    -4.3050   -23.5880 O.co2        1 ADQ507   0.0000
     3 O2B         30.7360    -2.0200   -24.6460 O.co2        1 ADQ507  -1.0000
     4 O3B         28.8010    -3.0270   -23.5870 O.3          1 ADQ507   0.0000
     5 PA          30.5930    -4.6430   -26.8850 P.3          1 ADQ507   0.0000
     6 O1A         30.4550    -3.7270   -28.0700 O.co2        1 ADQ507   0.0000
     7 O2A         30.2310    -6.0930   -27.0720 O.co2        1 ADQ507  -1.0000
     8 O3A         29.6560    -4.0960   -25.6870 O.3          1 ADQ507   0.0000
     9 O5D         32.1170    -4.6590   -26.3310 O.3          1 ADQ507   0.0000
    10 C5D         33.2510    -4.0280   -26.9620 C.3          1 ADQ507   0.0000
    11 C4D         34.3410    -3.9230   -25.8950 C.3          1 ADQ507   0.0000
    12 O4D         35.5600    -3.4780   -26.4590 O.3          1 ADQ507   0.0000
    13 C3D         34.0760    -2.9690   -24.7380 C.3          1 ADQ507   0.0000
    14 O3D         33.8560    -3.7080   -23.5100 O.3          1 ADQ507   0.0000
    15 C2D         35.3070    -2.0770   -24.6390 C.3          1 ADQ507   0.0000
    16 O2D         35.7650    -1.8430   -23.2840 O.3          1 ADQ507   0.0000
    17 C1D         36.3320    -2.8390   -25.4310 C.3          1 ADQ507   0.0000
    18 N9          37.3140    -1.9800   -26.1640 N.pl3        1 ADQ507   0.0000
    19 C8          37.0970    -0.7910   -26.7900 C.2          1 ADQ507   0.0000
    20 N7          38.2530    -0.3970   -27.3590 N.2          1 ADQ507   0.0000
    21 C5          39.1950    -1.3340   -27.0980 C.ar         1 ADQ507   0.0000
    22 C6          40.5510    -1.4610   -27.4200 C.ar         1 ADQ507   0.0000
    23 N6          41.2140    -0.5240   -28.1590 N.pl3        1 ADQ507   0.0000
    24 N1          41.2130    -2.5560   -26.9900 N.ar         1 ADQ507   0.0000
    25 C2          40.5860    -3.4990   -26.2350 C.ar         1 ADQ507   0.0000
    26 N3          39.2970    -3.4170   -25.8970 N.ar         1 ADQ507   0.0000
    27 C4          38.5910    -2.3390   -26.3360 C.ar         1 ADQ507   0.0000
    28 C1'         27.6540    -3.8710   -23.5330 C.3          1 ADQ507   0.0000
    29 C2'         26.5450    -3.1370   -22.7800 C.3          1 ADQ507   0.0000
    30 C3'         26.8970    -2.9610   -21.3240 C.3          1 ADQ507   0.0000
    31 C4'         27.2020    -4.3570   -20.7720 C.3          1 ADQ507   0.0000
    32 C5'         28.3470    -5.0230   -21.5300 C.3          1 ADQ507   0.0000
    33 C6'         28.5570    -6.4640   -21.1420 C.3          1 ADQ507   0.0000
    34 O2'         26.3750    -1.8460   -23.3510 O.3          1 ADQ507   0.0000
    35 O3'         25.7450    -2.3750   -20.6980 O.3          1 ADQ507   0.0000
    36 O4'         27.5120    -4.2720   -19.3940 O.3          1 ADQ507   0.0000
    37 O5'         27.9820    -5.1070   -22.8880 O.3          1 ADQ507   0.0000
    38 O6'         27.2690    -7.1010   -21.0950 O.3          1 ADQ507   0.0000
    39 H5D1        33.0007    -3.1173   -27.2905 H            1 ADQ507   0.0000
    40 H5D2        33.5718    -4.5828   -27.7297 H            1 ADQ507   0.0000
    41 H4D         34.4909    -4.8358   -25.5151 H            1 ADQ507   0.0000
    42 H3D         33.2722    -2.4100   -24.9416 H            1 ADQ507   0.0000
    43 H5          32.8815    -3.9102   -23.4127 H            1 ADQ507   0.0000
    44 H2D         35.1224    -1.2015   -25.0856 H            1 ADQ507   0.0000
    45 H7          36.4255    -2.5491   -23.0288 H            1 ADQ507   0.0000
    46 H1D         36.7997    -3.5137   -24.8599 H            1 ADQ507   0.0000
    47 H9          36.2291    -0.2953   -26.8221 H            1 ADQ507   0.0000
    48 H10         42.1836    -0.6480   -28.3699 H            1 ADQ507   0.0000
    49 H11         40.7301     0.2863   -28.4894 H            1 ADQ507   0.0000
    50 H12         41.1138    -4.2877   -25.9197 H            1 ADQ507   0.0000
    51 H1'         27.3449    -4.0613   -24.4648 H            1 ADQ507   0.0000
    52 H2'         25.6912    -3.6518   -22.8575 H            1 ADQ507   0.0000
    53 H3'         27.6924    -2.3630   -21.2251 H            1 ADQ507   0.0000
    54 H4'         26.3840    -4.9226   -20.8765 H            1 ADQ507   0.0000
    55 H5'         29.1931    -4.5009   -21.4228 H            1 ADQ507   0.0000
    56 H6'1        28.9937    -6.5139   -20.2438 H            1 ADQ507   0.0000
    57 H6'2        29.1358    -6.9175   -21.8197 H            1 ADQ507   0.0000
    58 H20         26.6090    -1.8779   -24.3227 H            1 ADQ507   0.0000
    59 H21         24.9603    -2.9854   -20.8060 H            1 ADQ507   0.0000
    60 H22         26.8582    -4.8188   -18.8709 H            1 ADQ507   0.0000
    61 H6'         26.8883    -7.0157   -20.1742 H            1 ADQ507   0.0000
@<TRIPOS>BOND
     1    1    2      ar
     2    1    3      ar
     3    1    4       1
     4    1    8       1
     5    4   28       1
     6    5    6      ar
     7    5    7      ar
     8    5    8       1
     9    5    9       1
    10    9   10       1
    11   10   11       1
    12   11   12       1
    13   11   13       1
    14   12   17       1
    15   13   14       1
    16   13   15       1
    17   15   16       1
    18   15   17       1
    19   17   18       1
    20   18   19       1
    21   18   27       1
    22   19   20       2
    23   20   21       1
    24   21   22      ar
    25   21   27      ar
    26   22   23       1
    27   22   24      ar
    28   24   25      ar
    29   25   26      ar
    30   26   27      ar
    31   28   29       1
    32   28   37       1
    33   29   30       1
    34   29   34       1
    35   30   31       1
    36   30   35       1
    37   31   32       1
    38   31   36       1
    39   32   33       1
    40   32   37       1
    41   33   38       1
    42   38   61       1
    43   36   60       1
    44   10   39       1
    45   10   40       1
    46   11   41       1
    47   13   42       1
    48   14   43       1
    49   15   44       1
    50   16   45       1
    51   17   46       1
    52   19   47       1
    53   23   48       1
    54   23   49       1
    55   25   50       1
    56   28   51       1
    57   29   52       1
    58   30   53       1
    59   31   54       1
    60   32   55       1
    61   33   56       1
    62   33   57       1
    63   34   58       1
    64   35   59       1
@<TRIPOS>SUBSTRUCTURE
     1 ADQ507      1 GROUP             4 B     ADQ     0 **** ADQ B 507
