@<TRIPOS>MOLECULE
4pd6_URI_1_ligand
   29    30     1     0     0
SMALL
NO_CHARGES


@<TRIPOS>ATOM
     1 N1          51.3240   -20.2550    -8.9720 N.pl3        1 URI501   0.0000
     2 C2          50.6500   -20.5480   -10.1420 C.2          1 URI501   0.0000
     3 N3          49.5860   -21.4020    -9.9980 N.pl3        1 URI501   0.0000
     4 C4          49.1360   -21.9800    -8.8280 C.2          1 URI501   0.0000
     5 C5          49.8840   -21.6290    -7.6610 C.2          1 URI501   0.0000
     6 C6          50.9270   -20.7990    -7.7710 C.2          1 URI501   0.0000
     7 O2          50.9660   -20.0930   -11.2260 O.2          1 URI501   0.0000
     8 O4          48.1610   -22.7280    -8.8620 O.2          1 URI501   0.0000
     9 C1'         52.4890   -19.3420    -9.0550 C.3          1 URI501   0.0000
    10 C2'         52.0690   -17.8900    -9.2610 C.3          1 URI501   0.0000
    11 C3'         52.0480   -17.3790    -7.8250 C.3          1 URI501   0.0000
    12 C4'         53.2150   -18.1170    -7.1930 C.3          1 URI501   0.0000
    13 O2'         53.0810   -17.2340   -10.0080 O.3          1 URI501   0.0000
    14 O3'         52.1570   -15.9710    -7.7290 O.3          1 URI501   0.0000
    15 O4'         53.2100   -19.4170    -7.8410 O.3          1 URI501   0.0000
    16 C5'         53.1510   -18.2980    -5.6940 C.3          1 URI501   0.0000
    17 O5'         51.9010   -18.8360    -5.2900 O.3          1 URI501   0.0000
    18 H1          49.0818   -21.6305   -10.8308 H            1 URI501   0.0000
    19 H2          49.6290   -22.0016    -6.7687 H            1 URI501   0.0000
    20 H3          51.4404   -20.5635    -6.9458 H            1 URI501   0.0000
    21 H1'         53.0801   -19.6265    -9.8098 H            1 URI501   0.0000
    22 H2'         51.1727   -17.8170    -9.6985 H            1 URI501   0.0000
    23 H3'         51.1989   -17.6722    -7.3857 H            1 URI501   0.0000
    24 H4'         54.0635   -17.6419    -7.4262 H            1 URI501   0.0000
    25 H8          52.6708   -16.5062   -10.5575 H            1 URI501   0.0000
    26 H9          52.1372   -15.7000    -6.7666 H            1 URI501   0.0000
    27 H5'1        53.2806   -17.4098    -5.2532 H            1 URI501   0.0000
    28 H5'2        53.8802   -18.9206    -5.4101 H            1 URI501   0.0000
    29 H5'         51.2613   -18.0901    -5.1046 H            1 URI501   0.0000
@<TRIPOS>BOND
     1    1    2       1
     2    1    6       1
     3    1    9       1
     4    2    3       1
     5    2    7       2
     6    3    4       1
     7    4    5       1
     8    4    8       2
     9    5    6       2
    10    9   10       1
    11    9   15       1
    12   10   11       1
    13   10   13       1
    14   11   12       1
    15   11   14       1
    16   12   15       1
    17   12   16       1
    18   16   17       1
    19    3   18       1
    20    5   19       1
    21    6   20       1
    22    9   21       1
    23   10   22       1
    24   11   23       1
    25   12   24       1
    26   13   25       1
    27   14   26       1
    28   16   27       1
    29   16   28       1
    30   17   29       1
@<TRIPOS>SUBSTRUCTURE
     1 URI501      1 GROUP             4 A     URI     0 **** URI A 501
