@<TRIPOS>MOLECULE
4f9m_FCM_1_ligand
   65    69     1     0     0
SMALL
NO_CHARGES


@<TRIPOS>ATOM
     1 C1          16.4150    50.3770    64.2020 C.2          1 FCM501   0.0000
     2 C2          16.9040    50.9890    62.9480 C.2          1 FCM501   0.0000
     3 C3          16.6710    50.3030    61.6670 C.2          1 FCM501   0.0000
     4 C4          15.8630    49.0690    61.6400 C.2          1 FCM501   0.0000
     5 C5          15.6960    48.2350    62.9130 C.3          1 FCM501   0.0000
     6 C6          15.5750    49.1560    64.1490 C.2          1 FCM501   0.0000
     7 O7          15.1830    48.3820    60.7000 O.3          1 FCM501   0.0000
     8 C8          14.1980    47.6050    61.2810 C.ar         1 FCM501   0.0000
     9 C9          14.4260    47.4580    62.6590 C.ar         1 FCM501   0.0000
    10 C10         13.0960    47.0010    60.6900 C.ar         1 FCM501   0.0000
    11 C11         12.2090    46.2470    61.4660 C.ar         1 FCM501   0.0000
    12 C12         12.4380    46.1060    62.8330 C.ar         1 FCM501   0.0000
    13 C13         13.5390    46.7070    63.4260 C.ar         1 FCM501   0.0000
    14 O14         14.8560    48.8780    65.0990 O.2          1 FCM501   0.0000
    15 C15         16.7570    50.9780    65.5140 C.2          1 FCM501   0.0000
    16 C16         18.1390    51.6170    65.6780 C.3          1 FCM501   0.0000
    17 O17         15.9460    50.9470    66.4340 O.2          1 FCM501   0.0000
    18 O18         17.5580    52.1710    62.9700 O.3          1 FCM501   0.0000
    19 C19         16.8930    47.2990    63.0820 C.3          1 FCM501   0.0000
    20 O20         13.7540    46.5550    64.7790 O.3          1 FCM501   0.0000
    21 C21         12.8780    47.1630    59.2440 C.2          1 FCM501   0.0000
    22 O22         13.7890    47.2300    58.4280 O.2          1 FCM501   0.0000
    23 N23         11.5860    47.2260    58.8790 N.am         1 FCM501   0.0000
    24 C24         11.2420    47.3760    57.4760 C.3          1 FCM501   0.0000
    25 C25          9.8070    47.8050    57.3420 C.ar         1 FCM501   0.0000
    26 C26          9.4800    49.1400    57.0420 C.ar         1 FCM501   0.0000
    27 C27          8.1350    49.5460    56.9200 C.ar         1 FCM501   0.0000
    28 C28          7.1040    48.6180    57.1000 C.ar         1 FCM501   0.0000
    29 C29          7.3790    47.3080    57.3940 C.ar         1 FCM501   0.0000
    30 C30          8.7850    46.8800    57.5210 C.ar         1 FCM501   0.0000
    31 C31          6.3610    46.3970    57.5710 C.ar         1 FCM501   0.0000
    32 C32          6.6730    45.0640    57.8710 C.ar         1 FCM501   0.0000
    33 C33          8.0140    44.6490    57.9920 C.ar         1 FCM501   0.0000
    34 C34          9.0680    45.5620    57.8170 C.ar         1 FCM501   0.0000
    35 O35         11.1060    45.6380    60.8710 O.3          1 FCM501   0.0000
    36 C36         10.0570    45.5270    61.8080 C.3          1 FCM501   0.0000
    37 C37         10.5420    50.1810    56.8370 C.3          1 FCM501   0.0000
    38 F38          5.8560    49.0810    56.9710 F            1 FCM501   0.0000
    39 C39         10.9690    50.2610    55.3720 C.3          1 FCM501   0.0000
    40 H1          17.0575    50.6706    60.8211 H            1 FCM501   0.0000
    41 H2          11.8051    45.5684    63.3901 H            1 FCM501   0.0000
    42 H3          18.2310    51.9789    66.6057 H            1 FCM501   0.0000
    43 H4          18.8459    50.9282    65.5173 H            1 FCM501   0.0000
    44 H5          18.2426    52.3612    65.0181 H            1 FCM501   0.0000
    45 H6          17.8851    52.5774    62.1169 H            1 FCM501   0.0000
    46 H7          16.7777    46.7575    63.9148 H            1 FCM501   0.0000
    47 H8          16.9524    46.6880    62.2926 H            1 FCM501   0.0000
    48 H9          17.7318    47.8393    63.1492 H            1 FCM501   0.0000
    49 H10         14.5475    46.9842    65.2105 H            1 FCM501   0.0000
    50 H11         10.8653    47.1699    59.5699 H            1 FCM501   0.0000
    51 H12         11.3715    46.5019    57.0079 H            1 FCM501   0.0000
    52 H13         11.8344    48.0670    57.0617 H            1 FCM501   0.0000
    53 H14          7.9181    50.4981    56.7046 H            1 FCM501   0.0000
    54 H15          5.4070    46.6845    57.4861 H            1 FCM501   0.0000
    55 H16          5.9361    44.4005    58.0005 H            1 FCM501   0.0000
    56 H17          8.2182    43.6935    58.2049 H            1 FCM501   0.0000
    57 H18         10.0167    45.2587    57.9064 H            1 FCM501   0.0000
    58 H19          9.2686    45.0895    61.3755 H            1 FCM501   0.0000
    59 H20         10.3605    44.9745    62.5843 H            1 FCM501   0.0000
    60 H21          9.7983    46.4383    62.1283 H            1 FCM501   0.0000
    61 H22         11.3380    49.9481    57.3956 H            1 FCM501   0.0000
    62 H23         10.1845    51.0708    57.1207 H            1 FCM501   0.0000
    63 H24         11.6753    50.9613    55.2684 H            1 FCM501   0.0000
    64 H25         11.3324    49.3757    55.0819 H            1 FCM501   0.0000
    65 H26         10.1788    50.4984    54.8070 H            1 FCM501   0.0000
@<TRIPOS>BOND
     1    1    2       2
     2    1    6       1
     3    1   15       1
     4    2    3       1
     5    2   18       1
     6    3    4       2
     7    4    5       1
     8    4    7       1
     9    5    6       1
    10    5    9       1
    11    5   19       1
    12    6   14       2
    13    7    8       1
    14    8    9      ar
    15    8   10      ar
    16    9   13      ar
    17   10   11      ar
    18   10   21       1
    19   11   12      ar
    20   11   35       1
    21   12   13      ar
    22   13   20       1
    23   15   16       1
    24   15   17       2
    25   21   22       2
    26   21   23      am
    27   23   24       1
    28   24   25       1
    29   25   26      ar
    30   25   30      ar
    31   26   27      ar
    32   26   37       1
    33   27   28      ar
    34   28   29      ar
    35   28   38       1
    36   29   30      ar
    37   29   31      ar
    38   30   34      ar
    39   31   32      ar
    40   32   33      ar
    41   33   34      ar
    42   35   36       1
    43   37   39       1
    44    3   40       1
    45   12   41       1
    46   16   42       1
    47   16   43       1
    48   16   44       1
    49   18   45       1
    50   19   46       1
    51   19   47       1
    52   19   48       1
    53   20   49       1
    54   23   50       1
    55   24   51       1
    56   24   52       1
    57   27   53       1
    58   31   54       1
    59   32   55       1
    60   33   56       1
    61   34   57       1
    62   36   58       1
    63   36   59       1
    64   36   60       1
    65   37   61       1
    66   37   62       1
    67   39   63       1
    68   39   64       1
    69   39   65       1
@<TRIPOS>SUBSTRUCTURE
     1 FCM501      1 GROUP             4 A     FCM     0 **** FCM A 501
