@<TRIPOS>MOLECULE
4g67_SAH_1_ligand
   46    48     1     0     0
SMALL
NO_CHARGES


@<TRIPOS>ATOM
     1 N           15.7020    -6.1980   -17.2870 N.4          1 SAH501   1.0000
     2 CA          16.6520    -5.0830   -17.4620 C.3          1 SAH501   0.0000
     3 CB          17.6040    -5.3900   -18.6310 C.3          1 SAH501   0.0000
     4 CG          17.0270    -5.5010   -19.9900 C.3          1 SAH501   0.0000
     5 SD          18.3690    -5.8870   -21.1250 S.3          1 SAH501   0.0000
     6 C           15.8530    -3.8020   -17.5990 C.2          1 SAH501   0.0000
     7 O           16.3970    -2.7300   -17.3580 O.co2        1 SAH501   0.0000
     8 OXT         14.6530    -3.8190   -17.9070 O.co2        1 SAH501  -1.0000
     9 C5'         18.3420    -7.6600   -21.3820 C.3          1 SAH501   0.0000
    10 C4'         19.2620    -8.4390   -20.4460 C.3          1 SAH501   0.0000
    11 O4'         18.9640    -9.8520   -20.4540 O.3          1 SAH501   0.0000
    12 C3'         20.7570    -8.3290   -20.7530 C.3          1 SAH501   0.0000
    13 O3'         21.4680    -7.9090   -19.5680 O.3          1 SAH501   0.0000
    14 C2'         21.1440    -9.7260   -21.2160 C.3          1 SAH501   0.0000
    15 O2'         22.5090   -10.0760   -20.9270 O.3          1 SAH501   0.0000
    16 C1'         20.1640   -10.5820   -20.4240 C.3          1 SAH501   0.0000
    17 N9          19.9440   -11.9240   -20.9960 N.pl3        1 SAH501   0.0000
    18 C8          19.8020   -12.3230   -22.2820 C.2          1 SAH501   0.0000
    19 N7          19.6450   -13.6660   -22.3590 N.2          1 SAH501   0.0000
    20 C5          19.6780   -14.1200   -21.0830 C.ar         1 SAH501   0.0000
    21 C6          19.5540   -15.4080   -20.3990 C.ar         1 SAH501   0.0000
    22 N6          19.3920   -16.5000   -21.1450 N.pl3        1 SAH501   0.0000
    23 N1          19.6450   -15.4520   -19.0490 N.ar         1 SAH501   0.0000
    24 C2          19.8650   -14.3540   -18.3080 C.ar         1 SAH501   0.0000
    25 N3          19.9170   -13.1230   -18.8790 N.ar         1 SAH501   0.0000
    26 C4          19.8620   -12.9830   -20.2060 C.ar         1 SAH501   0.0000
    27 H1          15.0854    -5.9943   -16.5265 H            1 SAH501   0.0000
    28 H2          15.1696    -6.3170   -18.1251 H            1 SAH501   0.0000
    29 HA          17.2012    -5.0144   -16.6291 H            1 SAH501   0.0000
    30 HB1         18.0534    -6.2598   -18.4273 H            1 SAH501   0.0000
    31 HB2         18.2870    -4.6601   -18.6572 H            1 SAH501   0.0000
    32 HG1         16.5994    -4.6353   -20.2501 H            1 SAH501   0.0000
    33 HG2         16.3430    -6.2301   -20.0110 H            1 SAH501   0.0000
    34 H5'1        18.6224    -7.8452   -22.3239 H            1 SAH501   0.0000
    35 H5'2        17.4059    -7.9833   -21.2432 H            1 SAH501   0.0000
    36 H4'         19.1137    -8.0994   -19.5172 H            1 SAH501   0.0000
    37 H3'         20.9062    -7.6713   -21.4914 H            1 SAH501   0.0000
    38 H12         21.5146    -6.9104   -19.5436 H            1 SAH501   0.0000
    39 H2'         20.9670    -9.8222   -22.1955 H            1 SAH501   0.0000
    40 H14         22.5590   -10.5073   -20.0262 H            1 SAH501   0.0000
    41 H1'         20.4809   -10.6678   -19.4794 H            1 SAH501   0.0000
    42 H16         19.8118   -11.7078   -23.0703 H            1 SAH501   0.0000
    43 H17         19.3041   -17.3953   -20.7083 H            1 SAH501   0.0000
    44 H18         19.3583   -16.4243   -22.1416 H            1 SAH501   0.0000
    45 H19         19.9925   -14.4442   -17.3203 H            1 SAH501   0.0000
    46 H20         16.2070    -7.0385   -17.0908 H            1 SAH501   0.0000
@<TRIPOS>BOND
     1    1    2       1
     2    2    3       1
     3    2    6       1
     4    3    4       1
     5    4    5       1
     6    5    9       1
     7    6    7      ar
     8    6    8      ar
     9    9   10       1
    10   10   11       1
    11   10   12       1
    12   11   16       1
    13   12   13       1
    14   12   14       1
    15   14   15       1
    16   14   16       1
    17   16   17       1
    18   17   18       1
    19   17   26       1
    20   18   19       2
    21   19   20       1
    22   20   21      ar
    23   20   26      ar
    24   21   22       1
    25   21   23      ar
    26   23   24      ar
    27   24   25      ar
    28   25   26      ar
    29    1   27       1
    30    1   28       1
    31    2   29       1
    32    3   30       1
    33    3   31       1
    34    4   32       1
    35    4   33       1
    36    1   46       1
    37    9   34       1
    38    9   35       1
    39   10   36       1
    40   12   37       1
    41   13   38       1
    42   14   39       1
    43   15   40       1
    44   16   41       1
    45   18   42       1
    46   22   43       1
    47   22   44       1
    48   24   45       1
@<TRIPOS>SUBSTRUCTURE
     1 SAH501      1 GROUP             4 A     SAH     0 **** SAH A 501
