@<TRIPOS>MOLECULE
4gv2_5ME_1_ligand
   42    44     1     0     0
SMALL
NO_CHARGES


@<TRIPOS>ATOM
     1 CAJ         -3.8370    -0.6870    13.8380 C.ar         1 5ME601   0.0000
     2 CAF         -3.2950     0.5880    13.6210 C.ar         1 5ME601   0.0000
     3 CAE         -2.5020     0.8000    12.5100 C.ar         1 5ME601   0.0000
     4 CAI         -2.2460    -0.2600    11.6440 C.ar         1 5ME601   0.0000
     5 NAO         -2.8000    -1.5620    11.8580 N.ar         1 5ME601   0.0000
     6 CAU         -3.6000    -1.7310    12.9240 C.ar         1 5ME601   0.0000
     7 CAY         -4.0790    -3.0000    13.0990 C.3          1 5ME601   0.0000
     8 CAA         -3.4610    -3.4750    14.4680 C.3          1 5ME601   0.0000
     9 NAQ         -5.5100    -3.2250    13.2560 N.am         1 5ME601   0.0000
    10 CAS         -6.3390    -4.0360    12.5420 C.2          1 5ME601   0.0000
    11 OAC         -6.2070    -4.5570    11.4380 O.2          1 5ME601   0.0000
    12 CAM         -7.4980    -4.3140    13.4580 C.3          1 5ME601   0.0000
    13 CAN         -8.8430    -4.7960    13.2110 C.3          1 5ME601   0.0000
    14 CAT         -9.4370    -5.7060    12.4010 C.2          1 5ME601   0.0000
    15 NAP         -9.0340    -6.9640    12.1370 N.2          1 5ME601   0.0000
    16 CAW         -9.8650    -7.7650    11.4040 C.ar         1 5ME601   0.0000
    17 CAK         -9.4380    -9.0660    11.0980 C.ar         1 5ME601   0.0000
    18 CAG        -10.2760    -9.8940    10.3960 C.ar         1 5ME601   0.0000
    19 CAH        -11.5270    -9.4680     9.9730 C.ar         1 5ME601   0.0000
    20 CAL        -11.9640    -8.1700    10.3310 C.ar         1 5ME601   0.0000
    21 CAX        -11.1300    -7.3450    11.0290 C.ar         1 5ME601   0.0000
    22 CAV        -11.5420    -6.0490    11.3700 C.2          1 5ME601   0.0000
    23 OAD        -12.6530    -5.5790    11.1410 O.2          1 5ME601   0.0000
    24 NAR        -10.6690    -5.2880    12.0930 N.pl3        1 5ME601   0.0000
    25 HAJ         -4.3968    -0.8560    14.6492 H            1 5ME601   0.0000
    26 HAF         -3.4800     1.3333    14.2616 H            1 5ME601   0.0000
    27 HAE         -2.1160     1.7047    12.3296 H            1 5ME601   0.0000
    28 HAI         -1.6581    -0.1070    10.8497 H            1 5ME601   0.0000
    29 HAY         -3.7345    -3.5842    12.3641 H            1 5ME601   0.0000
    30 HAA1        -3.7686    -4.4054    14.6676 H            1 5ME601   0.0000
    31 HAA2        -2.4630    -3.4599    14.4063 H            1 5ME601   0.0000
    32 HAA3        -3.7591    -2.8613    15.1991 H            1 5ME601   0.0000
    33 HAQ         -5.9460    -2.7100    13.9940 H            1 5ME601   0.0000
    34 HAM1        -7.6446    -3.4399    13.9210 H            1 5ME601   0.0000
    35 HAM2        -7.1279    -4.9776    14.1081 H            1 5ME601   0.0000
    36 HAN1        -9.3295    -3.9544    12.9763 H            1 5ME601   0.0000
    37 HAN2        -9.1276    -5.1034    14.1190 H            1 5ME601   0.0000
    38 HAK         -8.5356    -9.3849    11.3876 H            1 5ME601   0.0000
    39 HAG         -9.9790   -10.8251    10.1843 H            1 5ME601   0.0000
    40 HAH        -12.1099   -10.0676     9.4247 H            1 5ME601   0.0000
    41 HAL        -12.8790    -7.8590    10.0739 H            1 5ME601   0.0000
    42 HAR        -10.9621    -4.3839    12.4039 H            1 5ME601   0.0000
@<TRIPOS>BOND
     1    1    2      ar
     2    1    6      ar
     3    2    3      ar
     4    3    4      ar
     5    4    5      ar
     6    5    6      ar
     7    6    7       1
     8    7    8       1
     9    7    9       1
    10    9   10      am
    11   10   11       2
    12   10   12       1
    13   12   13       1
    14   13   14       1
    15   14   15       2
    16   14   24       1
    17   15   16       1
    18   16   17      ar
    19   16   21      ar
    20   17   18      ar
    21   18   19      ar
    22   19   20      ar
    23   20   21      ar
    24   21   22       1
    25   22   23       2
    26   22   24       1
    27    1   25       1
    28    2   26       1
    29    3   27       1
    30    4   28       1
    31    7   29       1
    32    8   30       1
    33    8   31       1
    34    8   32       1
    35    9   33       1
    36   12   34       1
    37   12   35       1
    38   13   36       1
    39   13   37       1
    40   20   41       1
    41   17   38       1
    42   18   39       1
    43   19   40       1
    44   24   42       1
@<TRIPOS>SUBSTRUCTURE
     1 5ME601      1 GROUP             4 A     5ME     0 **** 5ME A 601
