@<TRIPOS>MOLECULE
2bru_NAP_2_ligand
   73    77     1     0     0
SMALL
NO_CHARGES


@<TRIPOS>ATOM
     1 PA         -31.0560    10.0900     5.7930 P.3          1 NAP1001   0.0000
     2 O1A        -31.4810    10.6780     7.0840 O.co2        1 NAP1001   0.0000
     3 O2A        -30.6540     8.6650     5.7480 O.co2        1 NAP1001  -1.0000
     4 O5B        -32.1980    10.3650     4.6910 O.3          1 NAP1001   0.0000
     5 C5B        -33.0770    11.4620     4.8640 C.3          1 NAP1001   0.0000
     6 C4B        -34.2580    11.3710     3.9270 C.3          1 NAP1001   0.0000
     7 O4B        -33.8420    11.2460     2.5390 O.3          1 NAP1001   0.0000
     8 C3B        -35.1690    10.1840     4.1160 C.3          1 NAP1001   0.0000
     9 O3B        -36.0930    10.4270     5.1830 O.3          1 NAP1001   0.0000
    10 C2B        -35.9000    10.1130     2.7860 C.3          1 NAP1001   0.0000
    11 O2B        -37.2210    10.6540     2.7710 O.3          1 NAP1001   0.0000
    12 C1B        -35.0390    10.9070     1.8460 C.3          1 NAP1001   0.0000
    13 N9A        -34.7640    10.1840     0.5970 N.pl3        1 NAP1001   0.0000
    14 C8A        -34.0540     9.0530     0.4570 C.2          1 NAP1001   0.0000
    15 N7A        -34.0880     8.5740    -0.7840 N.2          1 NAP1001   0.0000
    16 C5A        -34.8400     9.4720    -1.4110 C.ar         1 NAP1001   0.0000
    17 C6A        -35.3960     9.2170    -2.6580 C.ar         1 NAP1001   0.0000
    18 N6A        -35.0270     8.1410    -3.3130 N.pl3        1 NAP1001   0.0000
    19 N1A        -36.4270    10.0220    -3.0280 N.ar         1 NAP1001   0.0000
    20 C2A        -36.8470    11.0110    -2.2340 C.ar         1 NAP1001   0.0000
    21 N3A        -36.2950    11.2440    -1.0380 N.ar         1 NAP1001   0.0000
    22 C4A        -35.2940    10.4670    -0.5890 C.ar         1 NAP1001   0.0000
    23 O3         -29.8080    10.9660     5.1840 O.3          1 NAP1001   0.0000
    24 PN         -29.2340    12.4540     5.3170 P.3          1 NAP1001   0.0000
    25 O1N        -30.2980    13.3980     5.7110 O.co2        1 NAP1001   0.0000
    26 O2N        -28.4300    12.7650     4.0960 O.co2        1 NAP1001  -1.0000
    27 O5D        -28.2160    12.2920     6.5510 O.3          1 NAP1001   0.0000
    28 C5D        -28.6810    12.0190     7.8820 C.3          1 NAP1001   0.0000
    29 C4D        -27.5170    11.6430     8.7820 C.3          1 NAP1001   0.0000
    30 O4D        -26.8270    10.4350     8.3580 O.3          1 NAP1001   0.0000
    31 C3D        -26.3850    12.6470     8.8260 C.3          1 NAP1001   0.0000
    32 O3D        -26.7420    13.8000     9.5740 O.3          1 NAP1001   0.0000
    33 C2D        -25.3280    11.8140     9.5570 C.3          1 NAP1001   0.0000
    34 O2D        -25.4270    12.0360    10.9650 O.3          1 NAP1001   0.0000
    35 C1D        -25.7110    10.3570     9.2790 C.3          1 NAP1001   0.0000
    36 N1N        -24.6110     9.4600     8.8750 N.ar         1 NAP1001   1.0000
    37 C2N        -23.7560     9.7970     7.7890 C.ar         1 NAP1001   0.0000
    38 C3N        -22.5710     9.0840     7.5780 C.ar         1 NAP1001   0.0000
    39 C7N        -21.6680     9.5060     6.4160 C.2          1 NAP1001   0.0000
    40 O7N        -20.4500     9.6000     6.5900 O.2          1 NAP1001   0.0000
    41 N7N        -22.2450     9.8120     5.2510 N.am         1 NAP1001   0.0000
    42 C4N        -22.2530     8.0020     8.3950 C.ar         1 NAP1001   0.0000
    43 C5N        -23.1030     7.6520     9.4440 C.ar         1 NAP1001   0.0000
    44 C6N        -24.2850     8.3560     9.6680 C.ar         1 NAP1001   0.0000
    45 P2B        -38.3950     9.8010     2.0680 P.3          1 NAP1001   0.0000
    46 O1X        -37.9520     9.6990     0.6620 O.co2        1 NAP1001   0.0000
    47 O2X        -39.6820    10.4920     2.2870 O.co2        1 NAP1001  -1.0000
    48 O3X        -38.2900     8.5160     2.7950 O.co2        1 NAP1001  -1.0000
    49 H5B1       -32.5799    12.3100     4.6803 H            1 NAP1001   0.0000
    50 H5B2       -33.4091    11.4679     5.8072 H            1 NAP1001   0.0000
    51 H4B        -34.8014    12.2052     4.0207 H            1 NAP1001   0.0000
    52 H3B        -34.6422     9.3501     4.2807 H            1 NAP1001   0.0000
    53 H5         -36.9436     9.9317     5.0066 H            1 NAP1001   0.0000
    54 H2B        -35.9311     9.1619     2.4787 H            1 NAP1001   0.0000
    55 H1B        -35.5205    11.7535     1.6189 H            1 NAP1001   0.0000
    56 H8A        -33.5534     8.6174     1.2051 H            1 NAP1001   0.0000
    57 H6A1       -35.4185     7.9440    -4.2118 H            1 NAP1001   0.0000
    58 H6A2       -34.3544     7.5183    -2.9132 H            1 NAP1001   0.0000
    59 H2A        -37.5973    11.5952    -2.5434 H            1 NAP1001   0.0000
    60 H5D1       -29.3340    11.2622     7.8543 H            1 NAP1001   0.0000
    61 H5D2       -29.1306    12.8340     8.2477 H            1 NAP1001   0.0000
    62 H4D        -27.8610    11.5066     9.7110 H            1 NAP1001   0.0000
    63 H3D        -26.0811    12.8916     7.9053 H            1 NAP1001   0.0000
    64 H16        -27.7276    13.9526     9.5011 H            1 NAP1001   0.0000
    65 H2D        -24.4086    12.0182     9.2210 H            1 NAP1001   0.0000
    66 H18        -25.7636    12.9625    11.1335 H            1 NAP1001   0.0000
    67 H1D        -26.0752     9.9912    10.1355 H            1 NAP1001   0.0000
    68 H2N        -24.0029    10.5461     7.1743 H            1 NAP1001   0.0000
    69 H7N1       -21.6827    10.0913     4.4727 H            1 NAP1001   0.0000
    70 H7N2       -23.2393     9.7618     5.1571 H            1 NAP1001   0.0000
    71 H4N        -21.4177     7.4775     8.2301 H            1 NAP1001   0.0000
    72 H5N        -22.8618     6.8876    10.0419 H            1 NAP1001   0.0000
    73 H6N        -24.9032     8.0697    10.4000 H            1 NAP1001   0.0000
@<TRIPOS>BOND
     1    1    2      ar
     2    1    3      ar
     3    1    4       1
     4    1   23       1
     5    4    5       1
     6    5    6       1
     7    6    7       1
     8    6    8       1
     9    7   12       1
    10    8    9       1
    11    8   10       1
    12   10   11       1
    13   10   12       1
    14   11   45       1
    15   12   13       1
    16   13   14       1
    17   13   22       1
    18   14   15       2
    19   15   16       1
    20   16   17      ar
    21   16   22      ar
    22   17   18       1
    23   17   19      ar
    24   19   20      ar
    25   20   21      ar
    26   21   22      ar
    27   23   24       1
    28   24   25      ar
    29   24   26      ar
    30   24   27       1
    31   27   28       1
    32   28   29       1
    33   29   30       1
    34   29   31       1
    35   30   35       1
    36   31   32       1
    37   31   33       1
    38   33   34       1
    39   33   35       1
    40   35   36       1
    41   36   37      ar
    42   36   44      ar
    43   37   38      ar
    44   38   39       1
    45   38   42      ar
    46   39   40       2
    47   39   41      am
    48   42   43      ar
    49   43   44      ar
    50   45   46      ar
    51   45   47      ar
    52   45   48      ar
    53   43   72       1
    54    5   49       1
    55    5   50       1
    56    6   51       1
    57    8   52       1
    58    9   53       1
    59   10   54       1
    60   12   55       1
    61   14   56       1
    62   18   57       1
    63   18   58       1
    64   20   59       1
    65   44   73       1
    66   28   60       1
    67   28   61       1
    68   29   62       1
    69   31   63       1
    70   32   64       1
    71   33   65       1
    72   34   66       1
    73   35   67       1
    74   37   68       1
    75   41   69       1
    76   41   70       1
    77   42   71       1
@<TRIPOS>SUBSTRUCTURE
     1 NAP1001     1 GROUP             4 C     NAP     0 **** NAP C1001
