@<TRIPOS>MOLECULE
2zvc_SAH_1_ligand
   46    48     1     0     0
SMALL
NO_CHARGES


@<TRIPOS>ATOM
     1 N            2.6070   -29.9490    12.4030 N.4          1 SAH301   1.0000
     2 CA           1.1030   -30.0720    12.1940 C.3          1 SAH301   0.0000
     3 CB           0.6180   -31.2410    11.3990 C.3          1 SAH301   0.0000
     4 CG           1.1460   -31.4230     9.9910 C.3          1 SAH301   0.0000
     5 SD           0.3030   -32.8920     9.2950 S.3          1 SAH301   0.0000
     6 C            0.4370   -30.0670    13.6290 C.2          1 SAH301   0.0000
     7 O            1.1690   -29.9870    14.6370 O.co2        1 SAH301   0.0000
     8 OXT         -0.8540   -30.1430    13.6570 O.co2        1 SAH301  -1.0000
     9 C5'         -1.1110   -32.1440     8.5810 C.3          1 SAH301   0.0000
    10 C4'         -2.4010   -32.7920     9.2310 C.3          1 SAH301   0.0000
    11 O4'         -2.5680   -32.2120    10.5500 O.3          1 SAH301   0.0000
    12 C3'         -3.6860   -32.5580     8.5210 C.3          1 SAH301   0.0000
    13 O3'         -3.8500   -33.4960     7.4580 O.3          1 SAH301   0.0000
    14 C2'         -4.6880   -32.7110     9.6900 C.3          1 SAH301   0.0000
    15 O2'         -4.9390   -34.0870     9.9860 O.3          1 SAH301   0.0000
    16 C1'         -4.0200   -31.9610    10.8490 C.3          1 SAH301   0.0000
    17 N9          -4.2710   -30.6240    10.9230 N.pl3        1 SAH301   0.0000
    18 C8          -3.4710   -29.4980    10.8630 C.2          1 SAH301   0.0000
    19 N7          -4.0940   -28.3610    10.9880 N.2          1 SAH301   0.0000
    20 C5          -5.4610   -28.7180    11.1530 C.ar         1 SAH301   0.0000
    21 C6          -6.6510   -27.9110    11.3470 C.ar         1 SAH301   0.0000
    22 N6          -6.6530   -26.5690    11.4140 N.pl3        1 SAH301   0.0000
    23 N1          -7.8220   -28.6300    11.4660 N.ar         1 SAH301   0.0000
    24 C2          -7.8750   -29.9910    11.4140 C.ar         1 SAH301   0.0000
    25 N3          -6.7680   -30.7890    11.2380 N.ar         1 SAH301   0.0000
    26 C4          -5.5980   -30.0910    11.1130 C.ar         1 SAH301   0.0000
    27 H1           3.0043   -29.4128    11.6582 H            1 SAH301   0.0000
    28 H2           2.7862   -29.4928    13.2746 H            1 SAH301   0.0000
    29 HA           0.7993   -29.2444    11.7220 H            1 SAH301   0.0000
    30 HB1         -0.3768   -31.1621    11.3339 H            1 SAH301   0.0000
    31 HB2          0.8541   -32.0661    11.9123 H            1 SAH301   0.0000
    32 HG1          2.1348   -31.5707    10.0106 H            1 SAH301   0.0000
    33 HG2          0.9406   -30.6147     9.4392 H            1 SAH301   0.0000
    34 H5'1        -1.1145   -32.3022     7.5936 H            1 SAH301   0.0000
    35 H5'2        -1.0999   -31.1604     8.7609 H            1 SAH301   0.0000
    36 H4'         -2.2570   -33.7771     9.3254 H            1 SAH301   0.0000
    37 H3'         -3.7157   -31.6247     8.1631 H            1 SAH301   0.0000
    38 H12         -4.3899   -33.0797     6.7264 H            1 SAH301   0.0000
    39 H2'         -5.5480   -32.2592     9.4527 H            1 SAH301   0.0000
    40 H14         -5.5885   -34.1519    10.7436 H            1 SAH301   0.0000
    41 H1'         -4.2642   -32.3966    11.7154 H            1 SAH301   0.0000
    42 H16         -2.4811   -29.5528    10.7325 H            1 SAH301   0.0000
    43 H17         -7.5126   -26.0764    11.5496 H            1 SAH301   0.0000
    44 H18         -5.7949   -26.0628    11.3282 H            1 SAH301   0.0000
    45 H19         -8.7667   -30.4335    11.5089 H            1 SAH301   0.0000
    46 H20          3.0178   -30.8607    12.4133 H            1 SAH301   0.0000
@<TRIPOS>BOND
     1    1    2       1
     2    2    3       1
     3    2    6       1
     4    3    4       1
     5    4    5       1
     6    5    9       1
     7    6    7      ar
     8    6    8      ar
     9    9   10       1
    10   10   11       1
    11   10   12       1
    12   11   16       1
    13   12   13       1
    14   12   14       1
    15   14   15       1
    16   14   16       1
    17   16   17       1
    18   17   18       1
    19   17   26       1
    20   18   19       2
    21   19   20       1
    22   20   21      ar
    23   20   26      ar
    24   21   22       1
    25   21   23      ar
    26   23   24      ar
    27   24   25      ar
    28   25   26      ar
    29    1   27       1
    30    1   28       1
    31    2   29       1
    32    3   30       1
    33    3   31       1
    34    4   32       1
    35    4   33       1
    36    1   46       1
    37    9   34       1
    38    9   35       1
    39   10   36       1
    40   12   37       1
    41   13   38       1
    42   14   39       1
    43   15   40       1
    44   16   41       1
    45   18   42       1
    46   22   43       1
    47   22   44       1
    48   24   45       1
@<TRIPOS>SUBSTRUCTURE
     1 SAH301      1 GROUP             4 A     SAH     0 **** SAH A 301
