@<TRIPOS>MOLECULE
4usq_FAD_1_ligand
   84    89     1     0     0
SMALL
NO_CHARGES


@<TRIPOS>ATOM
     1 PA          23.4230    14.6660     8.5490 P.3          1 FAD1361   0.0000
     2 O1A         24.6840    14.9050     7.7350 O.co2        1 FAD1361   0.0000
     3 O2A         22.9490    13.2740     8.8390 O.co2        1 FAD1361  -1.0000
     4 O5B         23.7270    15.3070     9.9780 O.3          1 FAD1361   0.0000
     5 C5B         23.0380    14.8790    11.1270 C.3          1 FAD1361   0.0000
     6 C4B         24.0650    14.6020    12.2060 C.3          1 FAD1361   0.0000
     7 O4B         23.2780    14.4190    13.3740 O.3          1 FAD1361   0.0000
     8 C3B         24.8420    13.3090    11.9980 C.3          1 FAD1361   0.0000
     9 O3B         26.1800    13.3440    12.4920 O.3          1 FAD1361   0.0000
    10 C2B         24.1020    12.2840    12.8420 C.3          1 FAD1361   0.0000
    11 O2B         24.9610    11.2140    13.2740 O.3          1 FAD1361   0.0000
    12 C1B         23.6760    13.1980    13.9660 C.3          1 FAD1361   0.0000
    13 N9A         22.5990    12.6400    14.8090 N.pl3        1 FAD1361   0.0000
    14 C8A         21.5360    11.9610    14.4070 C.2          1 FAD1361   0.0000
    15 N7A         20.8030    11.6060    15.4710 N.2          1 FAD1361   0.0000
    16 C5A         21.4130    12.0500    16.5580 C.ar         1 FAD1361   0.0000
    17 C6A         21.1640    11.9820    17.9840 C.ar         1 FAD1361   0.0000
    18 N6A         20.0730    11.3720    18.4620 N.pl3        1 FAD1361   0.0000
    19 N1A         22.0500    12.5510    18.7860 N.ar         1 FAD1361   0.0000
    20 C2A         23.1380    13.1660    18.3110 C.ar         1 FAD1361   0.0000
    21 N3A         23.4230    13.2450    17.0120 N.ar         1 FAD1361   0.0000
    22 C4A         22.5950    12.7200    16.1180 C.ar         1 FAD1361   0.0000
    23 N1          23.3500    16.9750    -0.8100 N.2          1 FAD1361   0.0000
    24 C2          23.9540    17.8460    -1.6570 C.2          1 FAD1361   0.0000
    25 O2          23.8470    19.0870    -1.4490 O.2          1 FAD1361   0.0000
    26 N3          24.6690    17.4120    -2.7100 N.pl3        1 FAD1361   0.0000
    27 C4          24.8330    16.1230    -3.0050 C.2          1 FAD1361   0.0000
    28 O4          25.5170    15.7770    -4.0030 O.2          1 FAD1361   0.0000
    29 C4X         24.2350    15.1260    -2.1140 C.2          1 FAD1361   0.0000
    30 N5          24.3700    13.8030    -2.3050 N.2          1 FAD1361   0.0000
    31 C5X         23.7920    12.9320    -1.4150 C.ar         1 FAD1361   0.0000
    32 C6          23.9340    11.5590    -1.5830 C.ar         1 FAD1361   0.0000
    33 C7          23.3970    10.6610    -0.6680 C.ar         1 FAD1361   0.0000
    34 C7M         23.5260     9.1780    -0.8540 C.3          1 FAD1361   0.0000
    35 C8          22.6020    11.1680     0.4600 C.ar         1 FAD1361   0.0000
    36 C8M         21.9910    10.1970     1.4120 C.3          1 FAD1361   0.0000
    37 C9          22.4580    12.5270     0.6530 C.ar         1 FAD1361   0.0000
    38 C9A         23.0290    13.4320    -0.2330 C.ar         1 FAD1361   0.0000
    39 N10         22.8900    14.8170    -0.0610 N.pl3        1 FAD1361   0.0000
    40 C10         23.4710    15.6650    -0.9880 C.2          1 FAD1361   0.0000
    41 C1'         22.0670    15.4470     0.9860 C.3          1 FAD1361   0.0000
    42 C2'         22.6000    16.0020     2.2880 C.3          1 FAD1361   0.0000
    43 O2'         23.4520    17.0940     1.9930 O.3          1 FAD1361   0.0000
    44 C3'         23.1560    14.8650     3.1160 C.3          1 FAD1361   0.0000
    45 O3'         22.1190    13.8920     3.3890 O.3          1 FAD1361   0.0000
    46 C4'         23.6270    15.3600     4.4400 C.3          1 FAD1361   0.0000
    47 O4'         23.8780    14.1970     5.2130 O.3          1 FAD1361   0.0000
    48 C5'         22.5950    16.1700     5.1740 C.3          1 FAD1361   0.0000
    49 O5'         23.2320    16.8250     6.2590 O.3          1 FAD1361   0.0000
    50 P           22.3650    17.0720     7.5940 P.3          1 FAD1361   0.0000
    51 O1P         20.9260    17.4140     7.2200 O.co2        1 FAD1361   0.0000
    52 O2P         23.2000    17.8680     8.5790 O.co2        1 FAD1361  -1.0000
    53 O3P         22.2150    15.5400     8.0290 O.3          1 FAD1361   0.0000
    54 H5B1        22.5238    14.0455    10.9247 H            1 FAD1361   0.0000
    55 H5B2        22.4083    15.5934    11.4320 H            1 FAD1361   0.0000
    56 H4B         24.6868    15.3778    12.3134 H            1 FAD1361   0.0000
    57 H3B         24.8306    13.0439    11.0339 H            1 FAD1361   0.0000
    58 H5          26.2301    13.9639    13.2751 H            1 FAD1361   0.0000
    59 H2B         23.3066    11.9268    12.3524 H            1 FAD1361   0.0000
    60 H7          25.6810    11.0698    12.5952 H            1 FAD1361   0.0000
    61 H1B         24.4708    13.3742    14.5467 H            1 FAD1361   0.0000
    62 H8A         21.3143    11.7462    13.4559 H            1 FAD1361   0.0000
    63 H6A1        19.9139    11.3326    19.4485 H            1 FAD1361   0.0000
    64 H6A2        19.4168    10.9555    17.8327 H            1 FAD1361   0.0000
    65 H2A         23.7687    13.5873    18.9627 H            1 FAD1361   0.0000
    66 H13         25.1002    18.0923    -3.3027 H            1 FAD1361   0.0000
    67 H14         24.4320    11.2110    -2.3773 H            1 FAD1361   0.0000
    68 H7M1        23.0772     8.7066    -0.0948 H            1 FAD1361   0.0000
    69 H7M2        23.0929     8.9111    -1.7149 H            1 FAD1361   0.0000
    70 H7M3        24.4939     8.9278    -0.8762 H            1 FAD1361   0.0000
    71 H8M1        21.4861    10.6945     2.1174 H            1 FAD1361   0.0000
    72 H8M2        21.3655     9.5937     0.9172 H            1 FAD1361   0.0000
    73 H8M3        22.7115     9.6514     1.8400 H            1 FAD1361   0.0000
    74 H21         21.9378    12.8634     1.4380 H            1 FAD1361   0.0000
    75 H1'1        21.3917    14.7569     1.2463 H            1 FAD1361   0.0000
    76 H1'2        21.6054    16.2128     0.5382 H            1 FAD1361   0.0000
    77 H2'         21.8172    16.3710     2.7890 H            1 FAD1361   0.0000
    78 H25         23.4911    17.2283     1.0028 H            1 FAD1361   0.0000
    79 H3'         23.9118    14.4279     2.6285 H            1 FAD1361   0.0000
    80 H27         22.4978    13.1458     3.9364 H            1 FAD1361   0.0000
    81 H4'         24.4680    15.8900     4.3310 H            1 FAD1361   0.0000
    82 H29         24.2000    14.4636     6.1214 H            1 FAD1361   0.0000
    83 H5'1        21.8747    15.5678     5.5184 H            1 FAD1361   0.0000
    84 H5'2        22.1958    16.8481     4.5569 H            1 FAD1361   0.0000
@<TRIPOS>BOND
     1    1    2      ar
     2    1    3      ar
     3    1    4       1
     4    1   53       1
     5    4    5       1
     6    5    6       1
     7    6    7       1
     8    6    8       1
     9    7   12       1
    10    8    9       1
    11    8   10       1
    12   10   11       1
    13   10   12       1
    14   12   13       1
    15   13   14       1
    16   13   22       1
    17   14   15       2
    18   15   16       1
    19   16   17      ar
    20   16   22      ar
    21   17   18       1
    22   17   19      ar
    23   19   20      ar
    24   20   21      ar
    25   21   22      ar
    26   23   24       1
    27   23   40       2
    28   24   25       2
    29   24   26       1
    30   26   27       1
    31   27   28       2
    32   27   29       1
    33   29   30       2
    34   29   40       1
    35   30   31       1
    36   31   32      ar
    37   31   38      ar
    38   32   33      ar
    39   33   34       1
    40   33   35      ar
    41   35   36       1
    42   35   37      ar
    43   37   38      ar
    44   38   39       1
    45   39   40       1
    46   39   41       1
    47   41   42       1
    48   42   43       1
    49   42   44       1
    50   44   45       1
    51   44   46       1
    52   46   47       1
    53   46   48       1
    54   48   49       1
    55   49   50       1
    56   50   51      ar
    57   50   52      ar
    58   50   53       1
    59   48   84       1
    60    5   54       1
    61    5   55       1
    62    6   56       1
    63    8   57       1
    64    9   58       1
    65   10   59       1
    66   11   60       1
    67   12   61       1
    68   14   62       1
    69   18   63       1
    70   18   64       1
    71   20   65       1
    72   26   66       1
    73   32   67       1
    74   34   68       1
    75   34   69       1
    76   34   70       1
    77   36   71       1
    78   36   72       1
    79   36   73       1
    80   37   74       1
    81   41   75       1
    82   41   76       1
    83   42   77       1
    84   43   78       1
    85   44   79       1
    86   45   80       1
    87   46   81       1
    88   47   82       1
    89   48   83       1
@<TRIPOS>SUBSTRUCTURE
     1 FAD1361     1 GROUP             4 A     FAD     0 **** FAD A1361
