@<TRIPOS>MOLECULE
2ofi_ADK_1_ligand
   19    20     1     0     0
SMALL
NO_CHARGES


@<TRIPOS>ATOM
     1 N9          -4.9690    32.2650    47.1330 N.2          1 ADK301   0.0000
     2 C4          -5.7640    33.3060    46.8060 C.ar         1 ADK301   0.0000
     3 N3          -7.2030    33.4110    46.8200 N.ar         1 ADK301   1.0000
     4 C2          -7.8030    34.5610    46.4720 C.ar         1 ADK301   0.0000
     5 N1          -7.0660    35.6260    46.1390 N.ar         1 ADK301   0.0000
     6 C6          -5.7170    35.6400    46.1240 C.ar         1 ADK301   0.0000
     7 N6          -5.0530    36.7380    45.7690 N.pl3        1 ADK301   0.0000
     8 C5          -4.9450    34.4120    46.4550 C.ar         1 ADK301   0.0000
     9 N7          -3.6630    34.0150    46.5940 N.pl3        1 ADK301   0.0000
    10 C8          -3.6810    32.7070    46.9640 C.2          1 ADK301   0.0000
    11 C3A         -8.0270    32.2350    47.1760 C.3          1 ADK301   0.0000
    12 H1          -8.8012    34.6209    46.4619 H            1 ADK301   0.0000
    13 H2          -4.0530    36.7371    45.7615 H            1 ADK301   0.0000
    14 H3          -5.5542    37.5636    45.5099 H            1 ADK301   0.0000
    15 H4          -2.8657    32.1431    47.0953 H            1 ADK301   0.0000
    16 H3A1        -8.9952    32.4819    47.1358 H            1 ADK301   0.0000
    17 H3A2        -7.8452    31.4929    46.5308 H            1 ADK301   0.0000
    18 H3A3        -7.7976    31.9353    48.1020 H            1 ADK301   0.0000
    19 H8          -2.8496    34.5789    46.4512 H            1 ADK301   0.0000
@<TRIPOS>BOND
     1    1    2       1
     2    1   10       2
     3    2    3      ar
     4    2    8      ar
     5    3    4      ar
     6    3   11       1
     7    4    5      ar
     8    5    6      ar
     9    6    7       1
    10    6    8      ar
    11    8    9       1
    12    9   10       1
    13   11   18       1
    14    4   12       1
    15    7   13       1
    16    7   14       1
    17   10   15       1
    18   11   16       1
    19   11   17       1
    20    9   19       1
@<TRIPOS>SUBSTRUCTURE
     1 ADK301      1 GROUP             4 A     ADK     0 **** ADK A 301
