@<TRIPOS>MOLECULE
3qtt_ANP_2_ligand
   44    46     1     0     0
SMALL
NO_CHARGES


@<TRIPOS>ATOM
     1 PG           9.5270    45.1670   160.7660 P.3          1 ANP271   0.0000
     2 O1G         10.2320    45.8080   159.6470 O.co2        1 ANP271   0.0000
     3 O2G          8.6170    46.2170   161.5440 O.co2        1 ANP271  -1.0000
     4 O3G          8.7140    43.9380   160.2750 O.co2        1 ANP271  -1.0000
     5 PB          11.1270    45.4990   162.9160 P.3          1 ANP271   0.0000
     6 O1B         10.1440    46.6320   163.4000 O.co2        1 ANP271   0.0000
     7 O2B         12.4500    46.1480   162.4800 O.co2        1 ANP271  -1.0000
     8 N3B         10.5660    44.4370   161.7230 N.3          1 ANP271   0.0000
     9 PA          10.8810    43.0250   163.7650 P.3          1 ANP271   0.0000
    10 O1A         10.6990    42.3860   165.0450 O.co2        1 ANP271   0.0000
    11 O2A          9.6120    42.8070   163.0130 O.co2        1 ANP271  -1.0000
    12 O3A         11.3000    44.5410   164.0840 O.3          1 ANP271   0.0000
    13 O5'         11.9880    42.2550   163.0320 O.3          1 ANP271   0.0000
    14 C5'         12.3920    41.0010   163.4400 C.3          1 ANP271   0.0000
    15 C4'         13.5780    40.5010   162.7540 C.3          1 ANP271   0.0000
    16 O4'         13.2540    40.2990   161.4170 O.3          1 ANP271   0.0000
    17 C3'         14.6750    41.5210   162.7830 C.3          1 ANP271   0.0000
    18 O3'         15.8960    40.8760   162.8540 O.3          1 ANP271   0.0000
    19 C2'         14.5330    42.1850   161.5340 C.3          1 ANP271   0.0000
    20 O2'         15.6750    42.8950   161.1020 O.3          1 ANP271   0.0000
    21 C1'         14.1230    41.0920   160.6020 C.3          1 ANP271   0.0000
    22 N9          13.5090    41.6540   159.3810 N.pl3        1 ANP271   0.0000
    23 C8          12.5580    42.5760   159.3850 C.2          1 ANP271   0.0000
    24 N7          12.2540    42.8990   158.1420 N.2          1 ANP271   0.0000
    25 C5          13.0420    42.1860   157.3300 C.ar         1 ANP271   0.0000
    26 C6          13.1410    42.1470   155.9420 C.ar         1 ANP271   0.0000
    27 N6          12.3160    42.9680   155.1700 N.pl3        1 ANP271   0.0000
    28 N1          14.0210    41.3220   155.3930 N.ar         1 ANP271   0.0000
    29 C2          14.7940    40.5450   156.1620 C.ar         1 ANP271   0.0000
    30 N3          14.7150    40.5640   157.5090 N.ar         1 ANP271   0.0000
    31 C4          13.8550    41.3860   158.1120 C.ar         1 ANP271   0.0000
    32 H3B         10.1176    43.6580   162.1612 H            1 ANP271   0.0000
    33 H5'1        11.6415    40.3610   163.2753 H            1 ANP271   0.0000
    34 H5'2        12.5891    41.0386   164.4197 H            1 ANP271   0.0000
    35 H4'         13.8866    39.6458   163.1705 H            1 ANP271   0.0000
    36 H3'         14.5572    42.1568   163.5458 H            1 ANP271   0.0000
    37 H6          15.7871    40.0087   163.3398 H            1 ANP271   0.0000
    38 H2'         13.7739    42.8316   161.6092 H            1 ANP271   0.0000
    39 H8          15.4456    43.8625   160.9958 H            1 ANP271   0.0000
    40 H1'         14.9262    40.5519   160.3507 H            1 ANP271   0.0000
    41 H10         12.1358    42.9667   160.2030 H            1 ANP271   0.0000
    42 H11         12.3810    42.9458   154.1724 H            1 ANP271   0.0000
    43 H12         11.6603    43.5780   155.6149 H            1 ANP271   0.0000
    44 H13         15.4508    39.9310   155.7242 H            1 ANP271   0.0000
@<TRIPOS>BOND
     1    1    2      ar
     2    1    3      ar
     3    1    4      ar
     4    1    8       1
     5    5    6      ar
     6    5    7      ar
     7    5    8       1
     8    5   12       1
     9    9   10      ar
    10    9   11      ar
    11    9   12       1
    12    9   13       1
    13   13   14       1
    14   14   15       1
    15   15   16       1
    16   15   17       1
    17   16   21       1
    18   17   18       1
    19   17   19       1
    20   19   20       1
    21   19   21       1
    22   21   22       1
    23   22   23       1
    24   22   31       1
    25   23   24       2
    26   24   25       1
    27   25   26      ar
    28   25   31      ar
    29   26   27       1
    30   26   28      ar
    31   28   29      ar
    32   29   30      ar
    33   30   31      ar
    34   29   44       1
    35   27   43       1
    36   27   42       1
    37    8   32       1
    38   23   41       1
    39   14   33       1
    40   14   34       1
    41   15   35       1
    42   17   36       1
    43   18   37       1
    44   19   38       1
    45   20   39       1
    46   21   40       1
@<TRIPOS>SUBSTRUCTURE
     1 ANP271      1 GROUP             4 B     ANP     0 **** ANP B 271
