@<TRIPOS>MOLECULE
2jas_DTP_4_ligand
   43    45     1     0     0
SMALL
NO_CHARGES


@<TRIPOS>ATOM
     1 PG         -97.0170    53.6840   -11.5680 P.3          1 DTP1201   0.0000
     2 O1G        -98.1820    53.3820   -10.6490 O.co2        1 DTP1201   0.0000
     3 O2G        -95.9590    54.5950   -10.9910 O.co2        1 DTP1201  -1.0000
     4 O3G        -97.4090    54.0330   -12.9860 O.co2        1 DTP1201  -1.0000
     5 PB         -95.1490    51.5600   -11.0170 P.3          1 DTP1201   0.0000
     6 O1B        -94.7370    52.4790    -9.8890 O.co2        1 DTP1201   0.0000
     7 O2B        -95.4630    50.1050   -10.7560 O.co2        1 DTP1201  -1.0000
     8 O3B        -96.4160    52.2040   -11.7850 O.3          1 DTP1201   0.0000
     9 PA         -92.9490    52.8040   -12.1980 P.3          1 DTP1201   0.0000
    10 O1A        -92.5250    52.9860   -13.6320 O.co2        1 DTP1201   0.0000
    11 O2A        -93.3910    53.9930   -11.3830 O.co2        1 DTP1201  -1.0000
    12 O3A        -94.0490    51.6380   -12.1820 O.3          1 DTP1201   0.0000
    13 O5'        -91.8060    52.0600   -11.3360 O.3          1 DTP1201   0.0000
    14 C5'        -90.4630    51.8710   -11.7740 C.3          1 DTP1201   0.0000
    15 C4'        -89.5130    52.7580   -10.9760 C.3          1 DTP1201   0.0000
    16 O4'        -88.1710    52.3860   -11.2770 O.3          1 DTP1201   0.0000
    17 C3'        -89.6060    54.1880   -11.4490 C.3          1 DTP1201   0.0000
    18 O3'        -89.0780    55.0490   -10.4330 O.3          1 DTP1201   0.0000
    19 C2'        -88.7070    54.2210   -12.6720 C.3          1 DTP1201   0.0000
    20 C1'        -87.6370    53.1990   -12.3370 C.3          1 DTP1201   0.0000
    21 N9         -87.2340    52.3190   -13.4710 N.pl3        1 DTP1201   0.0000
    22 C8         -87.8650    51.2040   -13.9050 C.2          1 DTP1201   0.0000
    23 N7         -87.1920    50.6280   -14.9280 N.2          1 DTP1201   0.0000
    24 C5         -86.0950    51.3790   -15.1580 C.ar         1 DTP1201   0.0000
    25 C6         -84.9430    51.3500   -16.0980 C.ar         1 DTP1201   0.0000
    26 N6         -84.7990    50.3780   -17.0340 N.pl3        1 DTP1201   0.0000
    27 N1         -84.0240    52.3360   -15.9900 N.ar         1 DTP1201   1.0000
    28 C2         -84.1230    53.3200   -15.0690 C.ar         1 DTP1201   0.0000
    29 N3         -85.1360    53.4090   -14.1870 N.ar         1 DTP1201   0.0000
    30 C4         -86.1280    52.4860   -14.1880 C.ar         1 DTP1201   0.0000
    31 H5'1       -90.3966    52.1060   -12.7437 H            1 DTP1201   0.0000
    32 H5'2       -90.2061    50.9132   -11.6448 H            1 DTP1201   0.0000
    33 H4'        -89.6947    52.6901    -9.9950 H            1 DTP1201   0.0000
    34 H3'        -90.5469    54.4340   -11.6820 H            1 DTP1201   0.0000
    35 H5         -89.8128    55.3209    -9.8116 H            1 DTP1201   0.0000
    36 H2'1       -88.3088    55.1292   -12.8009 H            1 DTP1201   0.0000
    37 H2'2       -89.2102    53.9578   -13.4951 H            1 DTP1201   0.0000
    38 H1'        -86.8277    53.6790   -11.9984 H            1 DTP1201   0.0000
    39 H9         -88.7178    50.8513   -13.5200 H            1 DTP1201   0.0000
    40 H10        -84.0113    50.3898   -17.6500 H            1 DTP1201   0.0000
    41 H11        -85.4806    49.6500   -17.1077 H            1 DTP1201   0.0000
    42 H12        -83.4071    54.0177   -15.0413 H            1 DTP1201   0.0000
    43 H13        -83.2428    52.3371   -16.6143 H            1 DTP1201   0.0000
@<TRIPOS>BOND
     1    1    2      ar
     2    1    3      ar
     3    1    4      ar
     4    1    8       1
     5    5    6      ar
     6    5    7      ar
     7    5    8       1
     8    5   12       1
     9    9   10      ar
    10    9   11      ar
    11    9   12       1
    12    9   13       1
    13   13   14       1
    14   14   15       1
    15   15   16       1
    16   15   17       1
    17   16   20       1
    18   17   18       1
    19   17   19       1
    20   19   20       1
    21   20   21       1
    22   21   22       1
    23   21   30       1
    24   22   23       2
    25   23   24       1
    26   24   25      ar
    27   24   30      ar
    28   25   26       1
    29   25   27      ar
    30   27   28      ar
    31   28   29      ar
    32   29   30      ar
    33   28   42       1
    34   26   41       1
    35   26   40       1
    36   22   39       1
    37   14   31       1
    38   14   32       1
    39   15   33       1
    40   17   34       1
    41   18   35       1
    42   19   36       1
    43   19   37       1
    44   20   38       1
    45   27   43       1
@<TRIPOS>SUBSTRUCTURE
     1 DTP1201     1 GROUP             4 D     DTP     0 **** DTP D1201
