@<TRIPOS>MOLECULE
4gqs_0XV_1_ligand
   37    39     1     0     0
SMALL
NO_CHARGES


@<TRIPOS>ATOM
     1 CAV        -79.2720    19.3530   -41.2090 C.3          1 0XV502   0.0000
     2 CAI        -78.7470    20.4510   -42.1300 C.2          1 0XV502   0.0000
     3 OAH        -77.4600    20.9030   -42.0410 O.2          1 0XV502   0.0000
     4 CAB        -77.2650    21.8730   -42.9780 C.ar         1 0XV502   0.0000
     5 CAC        -76.1250    22.6550   -43.3020 C.ar         1 0XV502   0.0000
     6 CAD        -76.1970    23.6100   -44.3430 C.ar         1 0XV502   0.0000
     7 CAE        -77.4060    23.7850   -45.0600 C.ar         1 0XV502   0.0000
     8 CAF        -78.5470    23.0090   -44.7420 C.ar         1 0XV502   0.0000
     9 CAA        -78.4720    22.0490   -43.6940 C.ar         1 0XV502   0.0000
    10 CAG        -79.3970    21.1510   -43.1520 C.2          1 0XV502   0.0000
    11 CAJ        -80.8670    20.9810   -43.6200 C.2          1 0XV502   0.0000
    12 OAK        -81.2010    19.9010   -44.1090 O.2          1 0XV502   0.0000
    13 CAL        -81.9400    22.1070   -43.4920 C.ar         1 0XV502   0.0000
    14 CAM        -83.2640    21.8660   -43.9550 C.ar         1 0XV502   0.0000
    15 CAN        -84.2530    22.8780   -43.8510 C.ar         1 0XV502   0.0000
    16 CAO        -85.6720    22.5900   -44.3590 C.3          1 0XV502   0.0000
    17 CAP        -83.9390    24.1470   -43.2830 C.ar         1 0XV502   0.0000
    18 OAW        -84.9000    25.1140   -43.1890 O.3          1 0XV502   0.0000
    19 CAQ        -82.6160    24.3860   -42.8210 C.ar         1 0XV502   0.0000
    20 CAT        -82.2450    25.7400   -42.2050 C.3          1 0XV502   0.0000
    21 CAU        -81.6270    23.3780   -42.9230 C.ar         1 0XV502   0.0000
    22 HAV1       -80.2290    19.1632   -41.4284 H            1 0XV502   0.0000
    23 HAV2       -78.7296    18.5227   -41.3372 H            1 0XV502   0.0000
    24 HAV3       -79.2014    19.6537   -40.2579 H            1 0XV502   0.0000
    25 HAC        -75.2722    22.5307   -42.7948 H            1 0XV502   0.0000
    26 HAD        -75.3949    24.1612   -44.5726 H            1 0XV502   0.0000
    27 HAE        -77.4541    24.4609   -45.7955 H            1 0XV502   0.0000
    28 HAF        -79.3991    23.1346   -45.2500 H            1 0XV502   0.0000
    29 HAM        -83.4982    20.9800   -44.3552 H            1 0XV502   0.0000
    30 HAO1       -86.2470    23.3956   -44.2165 H            1 0XV502   0.0000
    31 HAO2       -85.6391    22.3723   -45.3345 H            1 0XV502   0.0000
    32 HAO3       -86.0547    21.8143   -43.8571 H            1 0XV502   0.0000
    33 HAW        -84.6770    26.0034   -42.7901 H            1 0XV502   0.0000
    34 HAT1       -81.2815    25.7317   -41.9375 H            1 0XV502   0.0000
    35 HAT2       -82.3982    26.4649   -42.8766 H            1 0XV502   0.0000
    36 HAT3       -82.8133    25.9065   -41.3992 H            1 0XV502   0.0000
    37 HAU        -80.7003    23.5583   -42.5932 H            1 0XV502   0.0000
@<TRIPOS>BOND
     1    1    2       1
     2    2    3       1
     3    2   10       2
     4    3    4       1
     5    4    5      ar
     6    4    9      ar
     7    5    6      ar
     8    6    7      ar
     9    7    8      ar
    10    8    9      ar
    11    9   10       1
    12   10   11       1
    13   11   12       2
    14   11   13       1
    15   13   14      ar
    16   13   21      ar
    17   14   15      ar
    18   15   16       1
    19   15   17      ar
    20   17   18       1
    21   17   19      ar
    22   19   20       1
    23   19   21      ar
    24    1   22       1
    25    1   23       1
    26    1   24       1
    27    5   25       1
    28    6   26       1
    29    7   27       1
    30    8   28       1
    31   14   29       1
    32   16   30       1
    33   16   31       1
    34   16   32       1
    35   18   33       1
    36   20   34       1
    37   20   35       1
    38   20   36       1
    39   21   37       1
@<TRIPOS>SUBSTRUCTURE
     1 0XV502      1 GROUP             4 A     0XV     0 **** 0XV A 502
