@<TRIPOS>MOLECULE
1xd9_ADP_2_ligand
   39    41     1     0     0
SMALL
NO_CHARGES


@<TRIPOS>ATOM
     1 PB          12.7380    -0.7890    20.5140 P.3          1 ADP292   0.0000
     2 O1B         11.3160    -0.7150    20.0950 O.co2        1 ADP292   0.0000
     3 O2B         13.2670     0.4550    21.1160 O.co2        1 ADP292  -1.0000
     4 O3B         13.6990    -0.8880    19.0320 O.co2        1 ADP292  -1.0000
     5 PA          13.3210    -2.3290    22.5610 P.3          1 ADP292   0.0000
     6 O1A         14.5620    -1.7920    23.1530 O.co2        1 ADP292   0.0000
     7 O2A         12.0770    -2.1060    23.3690 O.co2        1 ADP292  -1.0000
     8 O3A         13.1820    -2.0920    21.1000 O.3          1 ADP292   0.0000
     9 O5'         13.5420    -3.9050    22.6940 O.3          1 ADP292   0.0000
    10 C5'         12.6370    -4.8550    22.1220 C.3          1 ADP292   0.0000
    11 C4'         12.7680    -6.3360    22.6380 C.3          1 ADP292   0.0000
    12 O4'         14.1670    -6.7190    22.3870 O.3          1 ADP292   0.0000
    13 C3'         12.5500    -6.5750    24.2050 C.3          1 ADP292   0.0000
    14 O3'         12.4530    -7.9720    24.5730 O.3          1 ADP292   0.0000
    15 C2'         13.9490    -6.1020    24.6450 C.3          1 ADP292   0.0000
    16 O2'         14.1300    -6.4510    26.0270 O.3          1 ADP292   0.0000
    17 C1'         14.7450    -7.0230    23.6960 C.3          1 ADP292   0.0000
    18 N9          16.2030    -6.7050    23.7450 N.pl3        1 ADP292   0.0000
    19 C8          16.8530    -5.5000    23.6260 C.2          1 ADP292   0.0000
    20 N7          18.1530    -5.5750    23.7160 N.2          1 ADP292   0.0000
    21 C5          18.3890    -6.9320    23.8880 C.ar         1 ADP292   0.0000
    22 C6          19.5690    -7.6750    24.0390 C.ar         1 ADP292   0.0000
    23 N6          20.7760    -7.1320    23.9950 N.pl3        1 ADP292   0.0000
    24 N1          19.4470    -8.9940    24.2250 N.ar         1 ADP292   0.0000
    25 C2          18.2290    -9.5300    24.2330 C.ar         1 ADP292   0.0000
    26 N3          17.0430    -8.9560    24.0730 N.ar         1 ADP292   0.0000
    27 C4          17.2050    -7.6250    23.9080 C.ar         1 ADP292   0.0000
    28 H5'1        12.7864    -4.8619    21.1332 H            1 ADP292   0.0000
    29 H5'2        11.7063    -4.5453    22.3163 H            1 ADP292   0.0000
    30 H4'         12.1560    -6.9309    22.1169 H            1 ADP292   0.0000
    31 H3'         11.8117    -6.0185    24.5861 H            1 ADP292   0.0000
    32 H5          12.3181    -8.0479    25.5610 H            1 ADP292   0.0000
    33 H2'         14.1052    -5.1307    24.4657 H            1 ADP292   0.0000
    34 H7          13.8099    -5.7004    26.6050 H            1 ADP292   0.0000
    35 H1'         14.5898    -7.9826    23.9308 H            1 ADP292   0.0000
    36 H9          16.3696    -4.6365    23.4822 H            1 ADP292   0.0000
    37 H10         21.5869    -7.7060    24.1084 H            1 ADP292   0.0000
    38 H11         20.8765    -6.1479    23.8483 H            1 ADP292   0.0000
    39 H12         18.2033   -10.5184    24.3828 H            1 ADP292   0.0000
@<TRIPOS>BOND
     1    1    2      ar
     2    1    3      ar
     3    1    4      ar
     4    1    8       1
     5    5    6      ar
     6    5    7      ar
     7    5    8       1
     8    5    9       1
     9    9   10       1
    10   10   11       1
    11   11   12       1
    12   11   13       1
    13   12   17       1
    14   13   14       1
    15   13   15       1
    16   15   16       1
    17   15   17       1
    18   17   18       1
    19   18   19       1
    20   18   27       1
    21   19   20       2
    22   20   21       1
    23   21   22      ar
    24   21   27      ar
    25   22   23       1
    26   22   24      ar
    27   24   25      ar
    28   25   26      ar
    29   26   27      ar
    30   25   39       1
    31   23   38       1
    32   23   37       1
    33   10   28       1
    34   10   29       1
    35   11   30       1
    36   13   31       1
    37   14   32       1
    38   15   33       1
    39   16   34       1
    40   17   35       1
    41   19   36       1
@<TRIPOS>SUBSTRUCTURE
     1 ADP292      1 GROUP             4 B     ADP     0 **** ADP B 292
