@<TRIPOS>MOLECULE
3dl9_V2H_4_ligand
   74    76     1     0     0
SMALL
NO_CHARGES


@<TRIPOS>ATOM
     1 O30        -24.2960    16.9460   -19.1020 O.3          1 V2H602   0.0000
     2 CAN        -25.3290    16.5810   -18.1940 C.3          1 V2H602   0.0000
     3 CAO        -25.8730    15.2090   -18.6170 C.3          1 V2H602   0.0000
     4 CAZ        -26.9160    14.6230   -17.6530 C.3          1 V2H602   0.0000
     5 OAG        -28.1040    15.4290   -17.6710 O.3          1 V2H602   0.0000
     6 CAT        -24.8130    16.4920   -16.7800 C.2          1 V2H602   0.0000
     7 CAA        -23.5900    16.8820   -16.4370 C.2          1 V2H602   0.0000
     8 CAU        -25.7590    15.8970   -15.8300 C.2          1 V2H602   0.0000
     9 CAS        -26.3730    14.5630   -16.2320 C.3          1 V2H602   0.0000
    10 CAH        -26.1220    16.4460   -14.6600 C.2          1 V2H602   0.0000
    11 CAI        -25.6300    17.7310   -14.1480 C.2          1 V2H602   0.0000
    12 CAV        -26.1140    18.2410   -12.9980 C.2          1 V2H602   0.0000
    13 CAM        -27.1790    17.5110   -12.2060 C.3          1 V2H602   0.0000
    14 CAL        -27.4240    17.9570   -10.7580 C.3          1 V2H602   0.0000
    15 CAR        -26.7750    19.2560   -10.2980 C.3          1 V2H602   0.0000
    16 CBC        -25.4350    19.4810   -10.9710 C.3          1 V2H602   0.0000
    17 CBA        -25.6660    19.5510   -12.4650 C.3          1 V2H602   0.0000
    18 CAF        -24.4590    18.3580   -10.6280 C.3          1 V2H602   0.0000
    19 CBB        -24.8880    20.8740   -10.6920 C.3          1 V2H602   0.0000
    20 CAQ        -23.9520    21.0910   -11.8840 C.3          1 V2H602   0.0000
    21 CAP        -24.3630    20.1050   -12.9860 C.3          1 V2H602   0.0000
    22 CAY        -24.1900    21.0950    -9.3400 C.3          1 V2H602   0.0000
    23 CAE        -25.1300    21.0570    -8.1340 C.3          1 V2H602   0.0000
    24 CAK        -23.4030    22.4060    -9.3180 C.2          1 V2H602   0.0000
    25 CAJ        -23.9410    23.5830    -9.6410 C.2          1 V2H602   0.0000
    26 CAX        -23.1020    24.8450    -9.5840 C.3          1 V2H602   0.0000
    27 CAD        -23.6710    25.7690    -8.5120 C.3          1 V2H602   0.0000
    28 CAW        -23.0410    25.5340   -10.9540 C.3          1 V2H602   0.0000
    29 CAB        -21.9670    26.6350   -10.9470 C.3          1 V2H602   0.0000
    30 CAC        -24.4070    26.0740   -11.3740 C.3          1 V2H602   0.0000
    31 H1         -24.4825    16.5437   -19.9983 H            1 V2H602   0.0000
    32 HAN        -26.0640    17.2577   -18.2375 H            1 V2H602   0.0000
    33 HAO1       -25.1052    14.5709   -18.6745 H            1 V2H602   0.0000
    34 HAO2       -26.2963    15.3033   -19.5181 H            1 V2H602   0.0000
    35 HAZ        -27.1481    13.6970   -17.9506 H            1 V2H602   0.0000
    36 HAG        -28.8808    14.8713   -17.9634 H            1 V2H602   0.0000
    37 HAA1       -23.2888    16.8051   -15.4865 H            1 V2H602   0.0000
    38 HAA2       -22.9708    17.2525   -17.1293 H            1 V2H602   0.0000
    39 HAS1       -25.6731    13.8507   -16.1784 H            1 V2H602   0.0000
    40 HAS2       -27.1203    14.3439   -15.6046 H            1 V2H602   0.0000
    41 HAH        -26.7759    15.9424   -14.0954 H            1 V2H602   0.0000
    42 HAI        -24.9299    18.2321   -14.6567 H            1 V2H602   0.0000
    43 HAM1       -26.9228    16.5447   -12.1814 H            1 V2H602   0.0000
    44 HAM2       -28.0421    17.6146   -12.7003 H            1 V2H602   0.0000
    45 HAL1       -27.0898    17.2282   -10.1604 H            1 V2H602   0.0000
    46 HAL2       -28.4118    18.0584   -10.6398 H            1 V2H602   0.0000
    47 HAR1       -26.6383    19.2174    -9.3081 H            1 V2H602   0.0000
    48 HAR2       -27.3821    20.0186   -10.5212 H            1 V2H602   0.0000
    49 HBA        -26.3851    20.2234   -12.6401 H            1 V2H602   0.0000
    50 HAF1       -23.5839    18.5268   -11.0816 H            1 V2H602   0.0000
    51 HAF2       -24.3208    18.3272    -9.6381 H            1 V2H602   0.0000
    52 HAF3       -24.8330    17.4845   -10.9397 H            1 V2H602   0.0000
    53 HBB        -25.6425    21.5263   -10.7644 H            1 V2H602   0.0000
    54 HAQ1       -23.0058    20.9198   -11.6095 H            1 V2H602   0.0000
    55 HAQ2       -24.0377    22.0298   -12.2177 H            1 V2H602   0.0000
    56 HAP1       -24.4940    20.5742   -13.8593 H            1 V2H602   0.0000
    57 HAP2       -23.6814    19.3815   -13.0953 H            1 V2H602   0.0000
    58 HAY        -23.5302    20.3526    -9.2236 H            1 V2H602   0.0000
    59 HAE1       -24.6044    21.2079    -7.2968 H            1 V2H602   0.0000
    60 HAE2       -25.8212    21.7736    -8.2274 H            1 V2H602   0.0000
    61 HAE3       -25.5790    20.1646    -8.0894 H            1 V2H602   0.0000
    62 HAK        -22.4402    22.3796    -9.0489 H            1 V2H602   0.0000
    63 HAJ        -24.8996    23.6334    -9.9213 H            1 V2H602   0.0000
    64 HAX        -22.1718    24.5917    -9.3184 H            1 V2H602   0.0000
    65 HAD1       -23.1235    26.6046    -8.4673 H            1 V2H602   0.0000
    66 HAD2       -24.6164    26.0018    -8.7401 H            1 V2H602   0.0000
    67 HAD3       -23.6462    25.3064    -7.6258 H            1 V2H602   0.0000
    68 HAW        -22.7666    24.8470   -11.6269 H            1 V2H602   0.0000
    69 HAB1       -21.9363    27.0765   -11.8438 H            1 V2H602   0.0000
    70 HAB2       -22.1909    27.3146   -10.2484 H            1 V2H602   0.0000
    71 HAB3       -21.0755    26.2298   -10.7443 H            1 V2H602   0.0000
    72 HAC1       -24.3305    26.5150   -12.2682 H            1 V2H602   0.0000
    73 HAC2       -25.0610    25.3196   -11.4293 H            1 V2H602   0.0000
    74 HAC3       -24.7236    26.7409   -10.6994 H            1 V2H602   0.0000
@<TRIPOS>BOND
     1    1    2       1
     2    2    3       1
     3    2    6       1
     4    3    4       1
     5    4    5       1
     6    4    9       1
     7    6    7       2
     8    6    8       1
     9    8    9       1
    10    8   10       2
    11   10   11       1
    12   11   12       2
    13   12   13       1
    14   12   17       1
    15   13   14       1
    16   14   15       1
    17   15   16       1
    18   16   17       1
    19   16   18       1
    20   16   19       1
    21   17   21       1
    22   19   20       1
    23   19   22       1
    24   20   21       1
    25   22   23       1
    26   22   24       1
    27   24   25       2
    28   25   26       1
    29   26   27       1
    30   26   28       1
    31   28   29       1
    32   28   30       1
    33    1   31       1
    34    2   32       1
    35    3   33       1
    36    3   34       1
    37    4   35       1
    38    5   36       1
    39    7   37       1
    40    7   38       1
    41    9   39       1
    42    9   40       1
    43   10   41       1
    44   11   42       1
    45   13   43       1
    46   13   44       1
    47   14   45       1
    48   14   46       1
    49   15   47       1
    50   15   48       1
    51   17   49       1
    52   18   50       1
    53   18   51       1
    54   18   52       1
    55   19   53       1
    56   20   54       1
    57   20   55       1
    58   21   56       1
    59   21   57       1
    60   22   58       1
    61   23   59       1
    62   23   60       1
    63   23   61       1
    64   24   62       1
    65   25   63       1
    66   26   64       1
    67   27   65       1
    68   27   66       1
    69   27   67       1
    70   28   68       1
    71   29   69       1
    72   29   70       1
    73   29   71       1
    74   30   72       1
    75   30   73       1
    76   30   74       1
@<TRIPOS>SUBSTRUCTURE
     1 V2H602      1 GROUP             4 B     V2H     0 **** V2H B 602
