@<TRIPOS>MOLECULE
1dxy_NAD_1_ligand
   70    74     1     0     0
SMALL
NO_CHARGES


@<TRIPOS>ATOM
     1 PA          79.7930    44.8760    -9.9500 P.3          1 NAD403   0.0000
     2 O1A         80.0010    44.8880    -8.4590 O.co2        1 NAD403   0.0000
     3 O2A         78.4260    45.1580   -10.4890 O.co2        1 NAD403  -1.0000
     4 O5B         80.4040    43.4800   -10.5080 O.3          1 NAD403   0.0000
     5 C5B         81.6650    42.9300   -10.1200 C.3          1 NAD403   0.0000
     6 C4B         81.4880    41.4310   -10.2450 C.3          1 NAD403   0.0000
     7 O4B         82.7670    40.8020   -10.1670 O.3          1 NAD403   0.0000
     8 C3B         80.6140    40.7760    -9.1780 C.3          1 NAD403   0.0000
     9 O3B         79.5740    40.0580    -9.8590 O.3          1 NAD403   0.0000
    10 C2B         81.5480    39.8460    -8.3840 C.3          1 NAD403   0.0000
    11 O2B         80.9990    38.5760    -7.9890 O.3          1 NAD403   0.0000
    12 C1B         82.6350    39.6090    -9.3940 C.3          1 NAD403   0.0000
    13 N9A         83.9430    39.2450    -8.8550 N.pl3        1 NAD403   0.0000
    14 C8A         84.5430    39.5110    -7.6740 C.2          1 NAD403   0.0000
    15 N7A         85.8240    39.1010    -7.6760 N.2          1 NAD403   0.0000
    16 C5A         85.9650    38.5120    -8.8690 C.ar         1 NAD403   0.0000
    17 C6A         87.0490    37.7140    -9.3130 C.ar         1 NAD403   0.0000
    18 N6A         88.0750    37.3750    -8.5170 N.pl3        1 NAD403   0.0000
    19 N1A         86.9140    37.1600   -10.5630 N.ar         1 NAD403   0.0000
    20 C2A         85.8150    37.3410   -11.3180 C.ar         1 NAD403   0.0000
    21 N3A         84.7700    38.0540   -10.8880 N.ar         1 NAD403   0.0000
    22 C4A         84.8150    38.6290    -9.6500 C.ar         1 NAD403   0.0000
    23 O3          80.8600    45.9040   -10.5710 O.3          1 NAD403   0.0000
    24 PN          80.9180    46.8370   -11.8650 P.3          1 NAD403   0.0000
    25 O1N         80.6970    45.8690   -12.9790 O.co2        1 NAD403   0.0000
    26 O2N         79.9420    47.9580   -11.7140 O.co2        1 NAD403  -1.0000
    27 O5D         82.4510    47.3520   -11.8350 O.3          1 NAD403   0.0000
    28 C5D         83.5220    46.4940   -12.2660 C.3          1 NAD403   0.0000
    29 C4D         84.8080    47.2250   -11.9250 C.3          1 NAD403   0.0000
    30 O4D         85.0480    48.4520   -12.6810 O.3          1 NAD403   0.0000
    31 C3D         84.8100    47.6580   -10.4600 C.3          1 NAD403   0.0000
    32 O3D         86.1510    47.5650    -9.9580 O.3          1 NAD403   0.0000
    33 C2D         84.4670    49.1490   -10.4880 C.3          1 NAD403   0.0000
    34 O2D         84.8650    49.6520    -9.1870 O.3          1 NAD403   0.0000
    35 C1D         85.3210    49.5290   -11.7190 C.3          1 NAD403   0.0000
    36 N1N         85.1220    50.9040   -12.2650 N.ar         1 NAD403   1.0000
    37 C2N         86.1400    51.4770   -13.0890 C.ar         1 NAD403   0.0000
    38 C3N         85.9800    52.7660   -13.6390 C.ar         1 NAD403   0.0000
    39 C7N         87.0620    53.4790   -14.5560 C.2          1 NAD403   0.0000
    40 O7N         86.9060    54.6340   -15.0010 O.2          1 NAD403   0.0000
    41 N7N         88.1670    52.7820   -14.8980 N.am         1 NAD403   0.0000
    42 C4N         84.7560    53.4110   -13.3020 C.ar         1 NAD403   0.0000
    43 C5N         83.7390    52.8490   -12.4860 C.ar         1 NAD403   0.0000
    44 C6N         83.9060    51.5750   -11.9570 C.ar         1 NAD403   0.0000
    45 H5B1        81.8839    43.1815    -9.1772 H            1 NAD403   0.0000
    46 H5B2        82.3913    43.2509   -10.7278 H            1 NAD403   0.0000
    47 H4B         81.0929    41.2333   -11.1421 H            1 NAD403   0.0000
    48 H3B         80.2205    41.4707    -8.5759 H            1 NAD403   0.0000
    49 H5          79.9816    39.3644   -10.4529 H            1 NAD403   0.0000
    50 H2B         81.9161    40.3253    -7.5873 H            1 NAD403   0.0000
    51 H7          81.1764    37.8994    -8.7037 H            1 NAD403   0.0000
    52 H1B         82.3363    38.8755   -10.0045 H            1 NAD403   0.0000
    53 H8A         84.0931    39.9550    -6.8991 H            1 NAD403   0.0000
    54 H6A1        88.8188    36.8097    -8.8735 H            1 NAD403   0.0000
    55 H6A2        88.0956    37.6877    -7.5674 H            1 NAD403   0.0000
    56 H2A         85.7793    36.9294   -12.2286 H            1 NAD403   0.0000
    57 H5D1        83.4640    46.3344   -13.2515 H            1 NAD403   0.0000
    58 H5D2        83.4815    45.6189   -11.7837 H            1 NAD403   0.0000
    59 H4D         85.5769    46.6033   -12.0744 H            1 NAD403   0.0000
    60 H3D         84.1626    47.1313    -9.9091 H            1 NAD403   0.0000
    61 H17         86.4709    46.6206   -10.0347 H            1 NAD403   0.0000
    62 H2D         83.4928    49.2984   -10.6569 H            1 NAD403   0.0000
    63 H19         85.6361    49.1156    -8.8439 H            1 NAD403   0.0000
    64 H1D         86.2811    49.4516   -11.4504 H            1 NAD403   0.0000
    65 H2N         86.9741    50.9586   -13.2774 H            1 NAD403   0.0000
    66 H7N1        88.8662    53.2046   -15.4747 H            1 NAD403   0.0000
    67 H7N2        88.2860    51.8433   -14.5746 H            1 NAD403   0.0000
    68 H4N         84.6011    54.3288   -13.6675 H            1 NAD403   0.0000
    69 H5N         82.9062    53.3678   -12.2928 H            1 NAD403   0.0000
    70 H6N         83.2038    51.1495   -11.3861 H            1 NAD403   0.0000
@<TRIPOS>BOND
     1    1    2      ar
     2    1    3      ar
     3    1    4       1
     4    1   23       1
     5    4    5       1
     6    5    6       1
     7    6    7       1
     8    6    8       1
     9    7   12       1
    10    8    9       1
    11    8   10       1
    12   10   11       1
    13   10   12       1
    14   12   13       1
    15   13   14       1
    16   13   22       1
    17   14   15       2
    18   15   16       1
    19   16   17      ar
    20   16   22      ar
    21   17   18       1
    22   17   19      ar
    23   19   20      ar
    24   20   21      ar
    25   21   22      ar
    26   23   24       1
    27   24   25      ar
    28   24   26      ar
    29   24   27       1
    30   27   28       1
    31   28   29       1
    32   29   30       1
    33   29   31       1
    34   30   35       1
    35   31   32       1
    36   31   33       1
    37   33   34       1
    38   33   35       1
    39   35   36       1
    40   36   37      ar
    41   36   44      ar
    42   37   38      ar
    43   38   39       1
    44   38   42      ar
    45   39   40       2
    46   39   41      am
    47   42   43      ar
    48   43   44      ar
    49   44   70       1
    50    5   45       1
    51    5   46       1
    52    6   47       1
    53    8   48       1
    54    9   49       1
    55   10   50       1
    56   11   51       1
    57   12   52       1
    58   14   53       1
    59   18   54       1
    60   18   55       1
    61   20   56       1
    62   43   69       1
    63   28   57       1
    64   28   58       1
    65   29   59       1
    66   31   60       1
    67   32   61       1
    68   33   62       1
    69   34   63       1
    70   35   64       1
    71   37   65       1
    72   41   66       1
    73   41   67       1
    74   42   68       1
@<TRIPOS>SUBSTRUCTURE
     1 NAD403      1 GROUP             4 A     NAD     0 **** NAD A 403
