@<TRIPOS>MOLECULE
4nau_AGS_2_ligand
   43    45     1     0     0
SMALL
NO_CHARGES


@<TRIPOS>ATOM
     1 PG         -18.0660   -28.9620    37.2930 P.3          1 AGS201   0.0000
     2 S1G        -16.2520   -29.5550    36.6660 S.2          1 AGS201   0.0000
     3 O2G        -18.6830   -28.0770    36.1890 O.co2        1 AGS201  -1.0000
     4 O3G        -18.8450   -30.2810    37.5140 O.co2        1 AGS201  -1.0000
     5 PB         -17.5170   -26.6260    39.0750 P.3          1 AGS201   0.0000
     6 O1B        -17.7670   -25.8300    37.7450 O.co2        1 AGS201   0.0000
     7 O2B        -16.1310   -26.6390    39.7670 O.co2        1 AGS201  -1.0000
     8 O3B        -18.0260   -28.2040    38.7660 O.3          1 AGS201   0.0000
     9 PA         -18.9250   -24.5810    40.5820 P.3          1 AGS201   0.0000
    10 O1A        -18.8700   -23.7440    39.2610 O.co2        1 AGS201   0.0000
    11 O2A        -20.1450   -24.6580    41.4890 O.co2        1 AGS201  -1.0000
    12 O3A        -18.6130   -26.1520    40.2220 O.3          1 AGS201   0.0000
    13 O5'        -17.6560   -24.2390    41.5500 O.3          1 AGS201   0.0000
    14 C5'        -17.5830   -23.1310    42.4690 C.3          1 AGS201   0.0000
    15 C4'        -16.1910   -22.9360    43.1090 C.3          1 AGS201   0.0000
    16 O4'        -15.8290   -24.0190    44.0130 O.3          1 AGS201   0.0000
    17 C3'        -15.0020   -22.8280    42.1380 C.3          1 AGS201   0.0000
    18 O3'        -13.9970   -22.0010    42.7570 O.3          1 AGS201   0.0000
    19 C2'        -14.5170   -24.2630    42.0270 C.3          1 AGS201   0.0000
    20 O2'        -13.1710   -24.5240    41.5910 O.3          1 AGS201   0.0000
    21 C1'        -14.6520   -24.6810    43.4770 C.3          1 AGS201   0.0000
    22 N9         -14.7290   -26.1670    43.5350 N.pl3        1 AGS201   0.0000
    23 C8         -15.6160   -27.0040    42.9310 C.2          1 AGS201   0.0000
    24 N7         -15.3310   -28.2830    43.2740 N.2          1 AGS201   0.0000
    25 C5         -14.2580   -28.2170    44.1170 C.ar         1 AGS201   0.0000
    26 C6         -13.4880   -29.1790    44.7850 C.ar         1 AGS201   0.0000
    27 N6         -13.8050   -30.4950    44.6560 N.pl3        1 AGS201   0.0000
    28 N1         -12.4410   -28.7780    45.5700 N.ar         1 AGS201   0.0000
    29 C2         -12.1270   -27.4610    45.6980 C.ar         1 AGS201   0.0000
    30 N3         -12.8250   -26.5090    45.0430 N.ar         1 AGS201   0.0000
    31 C4         -13.8840   -26.8830    44.2660 C.ar         1 AGS201   0.0000
    32 H5'1       -18.2467   -23.2853    43.2009 H            1 AGS201   0.0000
    33 H5'2       -17.8212   -22.2955    41.9737 H            1 AGS201   0.0000
    34 H4'        -16.2206   -22.0924    43.6451 H            1 AGS201   0.0000
    35 H3'        -15.2831   -22.4641    41.2500 H            1 AGS201   0.0000
    36 H5         -14.4376   -21.3358    43.3598 H            1 AGS201   0.0000
    37 H2'        -15.1570   -24.7892    41.4671 H            1 AGS201   0.0000
    38 H7         -12.5265   -24.0945    42.2236 H            1 AGS201   0.0000
    39 H1'        -13.8453   -24.3749    43.9825 H            1 AGS201   0.0000
    40 H9         -16.3615   -26.7193    42.3283 H            1 AGS201   0.0000
    41 H10        -13.2617   -31.1888    45.1286 H            1 AGS201   0.0000
    42 H11        -14.5815   -30.7690    44.0885 H            1 AGS201   0.0000
    43 H12        -11.3653   -27.1929    46.2879 H            1 AGS201   0.0000
@<TRIPOS>BOND
     1    1    2       2
     2    1    3      ar
     3    1    4      ar
     4    1    8       1
     5    5    6      ar
     6    5    7      ar
     7    5    8       1
     8    5   12       1
     9    9   10      ar
    10    9   11      ar
    11    9   12       1
    12    9   13       1
    13   13   14       1
    14   14   15       1
    15   15   16       1
    16   15   17       1
    17   16   21       1
    18   17   18       1
    19   17   19       1
    20   19   20       1
    21   19   21       1
    22   21   22       1
    23   22   23       1
    24   22   31       1
    25   23   24       2
    26   24   25       1
    27   25   26      ar
    28   25   31      ar
    29   26   27       1
    30   26   28      ar
    31   28   29      ar
    32   29   30      ar
    33   30   31      ar
    34   29   43       1
    35   27   42       1
    36   27   41       1
    37   23   40       1
    38   14   32       1
    39   14   33       1
    40   15   34       1
    41   17   35       1
    42   18   36       1
    43   19   37       1
    44   20   38       1
    45   21   39       1
@<TRIPOS>SUBSTRUCTURE
     1 AGS201      1 GROUP             4 B     AGS     0 **** AGS B 201
