@<TRIPOS>MOLECULE
3n5b_ADP_1_ligand
   39    41     1     0     0
SMALL
NO_CHARGES


@<TRIPOS>ATOM
     1 PB          23.9140     4.8380    31.4920 P.3          1 ADP113   0.0000
     2 O1B         24.2730     3.5560    32.1940 O.co2        1 ADP113   0.0000
     3 O2B         22.4760     4.8130    31.0530 O.co2        1 ADP113  -1.0000
     4 O3B         24.3090     6.1150    32.1750 O.co2        1 ADP113  -1.0000
     5 PA          26.4010     4.5310    29.9230 P.3          1 ADP113   0.0000
     6 O1A         26.5630     4.1910    28.4490 O.co2        1 ADP113   0.0000
     7 O2A         27.0210     3.5790    30.9260 O.co2        1 ADP113  -1.0000
     8 O3A         24.8080     4.7990    30.1380 O.3          1 ADP113   0.0000
     9 O5'         27.1170     5.9570    30.2050 O.3          1 ADP113   0.0000
    10 C5'         26.5110     7.2050    29.8700 C.3          1 ADP113   0.0000
    11 C4'         27.5810     8.2810    29.6650 C.3          1 ADP113   0.0000
    12 O4'         28.0950     8.7410    30.9250 O.3          1 ADP113   0.0000
    13 C3'         28.7890     7.7700    28.8910 C.3          1 ADP113   0.0000
    14 O3'         28.5800     7.8450    27.4740 O.3          1 ADP113   0.0000
    15 C2'         29.9320     8.6230    29.4110 C.3          1 ADP113   0.0000
    16 O2'         29.9810     9.8800    28.7360 O.3          1 ADP113   0.0000
    17 C1'         29.5080     8.9640    30.8260 C.3          1 ADP113   0.0000
    18 N9          30.1970     8.1820    31.8820 N.pl3        1 ADP113   0.0000
    19 C8          30.0040     6.8810    32.1830 C.2          1 ADP113   0.0000
    20 N7          30.7760     6.5110    33.2490 N.2          1 ADP113   0.0000
    21 C5          31.4720     7.5930    33.6510 C.ar         1 ADP113   0.0000
    22 C6          32.4650     7.9040    34.7110 C.ar         1 ADP113   0.0000
    23 N6          32.8940     6.9540    35.5830 N.pl3        1 ADP113   0.0000
    24 N1          32.9460     9.1610    34.7740 N.ar         1 ADP113   0.0000
    25 C2          32.5570    10.1330    33.9170 C.ar         1 ADP113   0.0000
    26 N3          31.6580     9.9220    32.9340 N.ar         1 ADP113   0.0000
    27 C4          31.0880     8.6970    32.7480 C.ar         1 ADP113   0.0000
    28 H5'1        25.9008     7.4844    30.6114 H            1 ADP113   0.0000
    29 H5'2        25.9842     7.0995    29.0266 H            1 ADP113   0.0000
    30 H4'         27.1792     9.0534    29.1731 H            1 ADP113   0.0000
    31 H3'         28.9556     6.8169    29.1435 H            1 ADP113   0.0000
    32 H5          28.1682     6.9924    27.1522 H            1 ADP113   0.0000
    33 H2'         30.8083     8.1421    29.3825 H            1 ADP113   0.0000
    34 H7          30.7405    10.4221    29.0956 H            1 ADP113   0.0000
    35 H1'         29.6867     9.9351    30.9843 H            1 ADP113   0.0000
    36 H9          29.3813     6.2707    31.6933 H            1 ADP113   0.0000
    37 H10         33.5633     7.1882    36.2881 H            1 ADP113   0.0000
    38 H11         32.5404     6.0208    35.5195 H            1 ADP113   0.0000
    39 H12         32.9526    11.0460    34.0166 H            1 ADP113   0.0000
@<TRIPOS>BOND
     1    1    2      ar
     2    1    3      ar
     3    1    4      ar
     4    1    8       1
     5    5    6      ar
     6    5    7      ar
     7    5    8       1
     8    5    9       1
     9    9   10       1
    10   10   11       1
    11   11   12       1
    12   11   13       1
    13   12   17       1
    14   13   14       1
    15   13   15       1
    16   15   16       1
    17   15   17       1
    18   17   18       1
    19   18   19       1
    20   18   27       1
    21   19   20       2
    22   20   21       1
    23   21   22      ar
    24   21   27      ar
    25   22   23       1
    26   22   24      ar
    27   24   25      ar
    28   25   26      ar
    29   26   27      ar
    30   25   39       1
    31   23   38       1
    32   23   37       1
    33   10   28       1
    34   10   29       1
    35   11   30       1
    36   13   31       1
    37   14   32       1
    38   15   33       1
    39   16   34       1
    40   17   35       1
    41   19   36       1
@<TRIPOS>SUBSTRUCTURE
     1 ADP113      1 GROUP             4 A     ADP     0 **** ADP A 113
