@<TRIPOS>MOLECULE
4aoj_V4Z_3_ligand
   46    48     1     0     0
SMALL
NO_CHARGES


@<TRIPOS>ATOM
     1 C1          33.7010    69.2130    24.3250 C.3          1 V4Z900   0.0000
     2 C2          33.7310    67.7810    24.7890 C.3          1 V4Z900   0.0000
     3 C3          34.9950    67.0690    24.3660 C.3          1 V4Z900   0.0000
     4 O1          33.6900    67.7810    26.2190 O.3          1 V4Z900   0.0000
     5 C4          33.0380    66.6830    26.7260 C.2          1 V4Z900   0.0000
     6 C5          32.3760    65.5790    26.2020 C.2          1 V4Z900   0.0000
     7 C6          31.9770    64.8340    27.3410 C.2          1 V4Z900   0.0000
     8 N1          31.2770    63.6580    27.3630 N.pl3        1 V4Z900   0.0000
     9 C7          30.7510    62.9150    26.2920 C.ar         1 V4Z900   0.0000
    10 N2          30.8490    63.3360    25.0160 N.ar         1 V4Z900   0.0000
    11 C8          30.3400    62.5480    24.0660 C.ar         1 V4Z900   0.0000
    12 N3          30.3950    62.9240    22.7330 N.pl3        1 V4Z900   0.0000
    13 C9          31.2160    64.0900    22.4820 C.3          1 V4Z900   0.0000
    14 C10         31.6530    63.8880    21.0400 C.3          1 V4Z900   0.0000
    15 C11         30.4110    65.3500    22.5330 C.ar         1 V4Z900   0.0000
    16 C12         31.0880    66.5350    22.6460 C.ar         1 V4Z900   0.0000
    17 C13         30.4030    67.7230    22.6810 C.ar         1 V4Z900   0.0000
    18 C14         29.0380    67.6810    22.6000 C.ar         1 V4Z900   0.0000
    19 F1          28.3380    68.8320    22.6320 F            1 V4Z900   0.0000
    20 C15         28.4140    66.4600    22.5000 C.ar         1 V4Z900   0.0000
    21 N4          29.0720    65.2990    22.4640 N.ar         1 V4Z900   0.0000
    22 N5          29.7410    61.3760    24.2840 N.ar         1 V4Z900   0.0000
    23 C16         29.6440    60.9760    25.5540 C.ar         1 V4Z900   0.0000
    24 C17         30.1380    61.7130    26.5890 C.ar         1 V4Z900   0.0000
    25 CL1         29.9530    61.0990    28.1810 Cl           1 V4Z900   0.0000
    26 N6          32.3560    65.4510    28.4730 N.2          1 V4Z900   0.0000
    27 N7          32.9920    66.5600    28.0890 N.pl3        1 V4Z900   0.0000
    28 H1          32.8500    69.6432    24.6262 H            1 V4Z900   0.0000
    29 H2          34.4795    69.7058    24.7138 H            1 V4Z900   0.0000
    30 H3          33.7536    69.2411    23.3268 H            1 V4Z900   0.0000
    31 H4          32.9347    67.2944    24.4298 H            1 V4Z900   0.0000
    32 H5          34.9716    66.1248    24.6945 H            1 V4Z900   0.0000
    33 H6          35.0620    67.0732    23.3683 H            1 V4Z900   0.0000
    34 H7          35.7879    67.5378    24.7553 H            1 V4Z900   0.0000
    35 H8          32.2170    65.3595    25.2394 H            1 V4Z900   0.0000
    36 H9          31.1168    63.2720    28.2715 H            1 V4Z900   0.0000
    37 H10         29.9105    62.4334    22.0087 H            1 V4Z900   0.0000
    38 H11         31.9996    64.1286    23.1020 H            1 V4Z900   0.0000
    39 H12         32.2356    64.6504    20.7584 H            1 V4Z900   0.0000
    40 H13         32.1641    63.0319    20.9634 H            1 V4Z900   0.0000
    41 H14         30.8467    63.8489    20.4497 H            1 V4Z900   0.0000
    42 H15         32.0864    66.5343    22.7033 H            1 V4Z900   0.0000
    43 H16         30.8872    68.5941    22.7633 H            1 V4Z900   0.0000
    44 H17         27.4154    66.4406    22.4517 H            1 V4Z900   0.0000
    45 H18         29.1934    60.1057    25.7529 H            1 V4Z900   0.0000
    46 H19         33.3887    67.2238    28.7230 H            1 V4Z900   0.0000
@<TRIPOS>BOND
     1    1    2       1
     2    2    3       1
     3    2    4       1
     4    4    5       1
     5    5    6       2
     6    5   27       1
     7    6    7       1
     8    7    8       1
     9    7   26       2
    10    8    9       1
    11    9   10      ar
    12    9   24      ar
    13   10   11      ar
    14   11   12       1
    15   11   22      ar
    16   12   13       1
    17   13   14       1
    18   13   15       1
    19   15   16      ar
    20   15   21      ar
    21   16   17      ar
    22   17   18      ar
    23   18   19       1
    24   18   20      ar
    25   20   21      ar
    26   22   23      ar
    27   23   24      ar
    28   24   25       1
    29   26   27       1
    30    1   28       1
    31    1   29       1
    32    1   30       1
    33    2   31       1
    34    3   32       1
    35    3   33       1
    36    3   34       1
    37    6   35       1
    38    8   36       1
    39   12   37       1
    40   13   38       1
    41   14   39       1
    42   14   40       1
    43   14   41       1
    44   16   42       1
    45   17   43       1
    46   20   44       1
    47   23   45       1
    48   27   46       1
@<TRIPOS>SUBSTRUCTURE
     1 V4Z900      1 GROUP             4 C     V4Z     0 **** V4Z C 900
