@<TRIPOS>MOLECULE
2gn4_UD1_2_ligand
   64    66     1     0     0
SMALL
NO_CHARGES


@<TRIPOS>ATOM
     1 C1'         33.2590    58.1640     3.3900 C.3          1 UD1335   0.0000
     2 C2'         31.8270    57.6770     3.5650 C.3          1 UD1335   0.0000
     3 C3'         30.9120    58.8490     3.8680 C.3          1 UD1335   0.0000
     4 C4'         31.4200    59.5130     5.1240 C.3          1 UD1335   0.0000
     5 C5'         32.8340    60.0310     4.8650 C.3          1 UD1335   0.0000
     6 C6'         33.3740    60.6890     6.1100 C.3          1 UD1335   0.0000
     7 C7'         31.0310    55.6250     2.4880 C.2          1 UD1335   0.0000
     8 C8'         30.6740    54.9630     1.1780 C.3          1 UD1335   0.0000
     9 N2'         31.3750    56.9570     2.3700 N.am         1 UD1335   0.0000
    10 O1'         33.3480    59.1010     2.3170 O.3          1 UD1335   0.0000
    11 O3'         29.6050    58.3580     4.1180 O.3          1 UD1335   0.0000
    12 O4'         30.5630    60.6060     5.4340 O.3          1 UD1335   0.0000
    13 O5'         33.7130    58.9320     4.5300 O.3          1 UD1335   0.0000
    14 O6'         34.4760    61.4940     5.7180 O.3          1 UD1335   0.0000
    15 O7'         31.0150    55.0260     3.5500 O.2          1 UD1335   0.0000
    16 N1          39.1790    55.9550    -3.1170 N.pl3        1 UD1335   0.0000
    17 C2          40.1540    55.4890    -4.0030 C.2          1 UD1335   0.0000
    18 N3          39.7850    54.4680    -4.8620 N.pl3        1 UD1335   0.0000
    19 C4          38.5310    53.8640    -4.9190 C.2          1 UD1335   0.0000
    20 C5          37.5270    54.4050    -3.9430 C.2          1 UD1335   0.0000
    21 C6          37.9180    55.4090    -3.1140 C.2          1 UD1335   0.0000
    22 O2          41.2770    55.9500    -4.0310 O.2          1 UD1335   0.0000
    23 O4          38.2710    52.9640    -5.7030 O.2          1 UD1335   0.0000
    24 C1B         39.5320    57.0300    -2.1750 C.3          1 UD1335   0.0000
    25 C2B         38.6020    58.2180    -2.2150 C.3          1 UD1335   0.0000
    26 O2'         39.1030    59.1980    -3.1190 O.3          1 UD1335   0.0000
    27 C3B         38.5690    58.7330    -0.8220 C.3          1 UD1335   0.0000
    28 C4B         38.9820    57.5580     0.0270 C.3          1 UD1335   0.0000
    29 O4B         39.5230    56.5510    -0.8320 O.3          1 UD1335   0.0000
    30 O3B         39.5540    59.7440    -0.6580 O.3          1 UD1335   0.0000
    31 C5B         37.7930    56.9780     0.7670 C.3          1 UD1335   0.0000
    32 O5B         36.8520    56.5390    -0.1860 O.3          1 UD1335   0.0000
    33 PA          35.3680    56.1770     0.3530 P.3          1 UD1335   0.0000
    34 O1A         34.2720    55.9540    -0.8110 O.co2        1 UD1335   0.0000
    35 O2A         35.6070    54.8880     1.2970 O.co2        1 UD1335  -1.0000
    36 O3A         35.0170    57.3550     1.4010 O.3          1 UD1335   0.0000
    37 PB          34.4680    58.8520     1.1510 P.3          1 UD1335   0.0000
    38 O1B         33.9390    59.1160    -0.3510 O.co2        1 UD1335   0.0000
    39 O2B         35.6950    59.7970     1.5970 O.co2        1 UD1335  -1.0000
    40 H1'         33.8712    57.3903     3.2268 H            1 UD1335   0.0000
    41 H2'         31.8007    57.0473     4.3414 H            1 UD1335   0.0000
    42 H3'         30.9050    59.4963     3.1058 H            1 UD1335   0.0000
    43 H4'         31.4276    58.8579     5.8795 H            1 UD1335   0.0000
    44 H5'         32.8188    60.6914     4.1142 H            1 UD1335   0.0000
    45 H6'1        33.6736    59.9929     6.7625 H            1 UD1335   0.0000
    46 H6'2        32.6672    61.2578     6.5305 H            1 UD1335   0.0000
    47 H8'1        30.4374    54.0053     1.3421 H            1 UD1335   0.0000
    48 H8'2        29.8926    55.4340     0.7686 H            1 UD1335   0.0000
    49 H8'3        31.4556    55.0115     0.5561 H            1 UD1335   0.0000
    50 H11         31.3170    57.4219     1.4865 H            1 UD1335   0.0000
    51 H12         29.5024    58.1652     5.0938 H            1 UD1335   0.0000
    52 H13         29.6324    60.2695     5.5779 H            1 UD1335   0.0000
    53 H6'         34.2943    62.4476     5.9581 H            1 UD1335   0.0000
    54 H15         40.4806    54.1343    -5.4983 H            1 UD1335   0.0000
    55 H16         36.5978    54.0376    -3.9038 H            1 UD1335   0.0000
    56 H17         37.2494    55.7711    -2.4645 H            1 UD1335   0.0000
    57 H1B         40.4560    57.3462    -2.3902 H            1 UD1335   0.0000
    58 H2B         37.6869    57.9282    -2.4955 H            1 UD1335   0.0000
    59 H20         38.3390    59.7061    -3.5167 H            1 UD1335   0.0000
    60 H3B         37.6584    59.0635    -0.5739 H            1 UD1335   0.0000
    61 H4B         39.6777    57.8473     0.6845 H            1 UD1335   0.0000
    62 H23         39.5269    60.0866     0.2811 H            1 UD1335   0.0000
    63 H5B1        37.3824    57.6791     1.3500 H            1 UD1335   0.0000
    64 H5B2        38.0886    56.2068     1.3308 H            1 UD1335   0.0000
@<TRIPOS>BOND
     1    1    2       1
     2    1   10       1
     3    1   13       1
     4    2    3       1
     5    2    9       1
     6    3    4       1
     7    3   11       1
     8    4    5       1
     9    4   12       1
    10    5    6       1
    11    5   13       1
    12    6   14       1
    13    7    8       1
    14    7    9      am
    15    7   15       2
    16   10   37       1
    17   16   17       1
    18   16   21       1
    19   16   24       1
    20   17   18       1
    21   17   22       2
    22   18   19       1
    23   19   20       1
    24   19   23       2
    25   20   21       2
    26   24   25       1
    27   24   29       1
    28   25   26       1
    29   25   27       1
    30   27   28       1
    31   27   30       1
    32   28   29       1
    33   28   31       1
    34   31   32       1
    35   32   33       1
    36   33   34      ar
    37   33   35      ar
    38   33   36       1
    39   36   37       1
    40   37   38      ar
    41   37   39      ar
    42    1   40       1
    43    2   41       1
    44    3   42       1
    45    4   43       1
    46    5   44       1
    47    6   45       1
    48    6   46       1
    49    8   47       1
    50    8   48       1
    51    8   49       1
    52    9   50       1
    53   11   51       1
    54   12   52       1
    55   14   53       1
    56   18   54       1
    57   20   55       1
    58   21   56       1
    59   24   57       1
    60   25   58       1
    61   26   59       1
    62   27   60       1
    63   28   61       1
    64   30   62       1
    65   31   63       1
    66   31   64       1
@<TRIPOS>SUBSTRUCTURE
     1 UD1335      1 GROUP             4 B     UD1     0 **** UD1 B 335
