@<TRIPOS>MOLECULE
2v2q_NVG_2_ligand
   52    55     1     0     0
SMALL
NO_CHARGES


@<TRIPOS>ATOM
     1 OAC        -27.5430     3.2370     7.9260 O.2          1 NVG1273   0.0000
     2 CAV        -27.7890     2.0580     7.6600 C.2          1 NVG1273   0.0000
     3 NAO        -26.8100     1.3220     7.1170 N.2          1 NVG1273   0.0000
     4 CAT        -26.9840     0.0320     6.8010 C.2          1 NVG1273   0.0000
     5 NAA        -25.9680    -0.6320     6.2670 N.pl3        1 NVG1273   0.0000
     6 CAF        -28.2060    -0.6050     7.0310 C.2          1 NVG1273   0.0000
     7 CAG        -29.2560     0.1250     7.5910 C.2          1 NVG1273   0.0000
     8 NBD        -29.0600     1.4720     7.9160 N.pl3        1 NVG1273   0.0000
     9 CBC        -30.1740     2.2780     8.5150 C.3          1 NVG1273   0.0000
    10 OAS        -31.3910     1.5190     8.8500 O.3          1 NVG1273   0.0000
    11 CBA        -30.6170     3.3780     7.5280 C.3          1 NVG1273   0.0000
    12 OAE        -30.1040     4.6290     7.9920 O.3          1 NVG1273   0.0000
    13 CAZ        -32.1310     3.3890     7.6180 C.3          1 NVG1273   0.0000
    14 OAD        -32.5110     4.2380     8.7070 O.3          1 NVG1273   0.0000
    15 CBB        -32.4490     1.9270     7.9410 C.3          1 NVG1273   0.0000
    16 CAN        -33.8370     1.7820     8.6230 C.3          1 NVG1273   0.0000
    17 NAQ        -33.9940     0.4320     9.1970 N.am         1 NVG1273   0.0000
    18 CAU        -35.1800    -0.1680     9.3340 C.2          1 NVG1273   0.0000
    19 OAB        -36.2560     0.3290     9.0020 O.2          1 NVG1273   0.0000
    20 CAL        -35.1270    -1.5730     9.9520 C.3          1 NVG1273   0.0000
    21 CAM        -35.2040    -2.6850     8.8970 C.3          1 NVG1273   0.0000
    22 CAW        -34.4180    -2.3060     7.6420 C.2          1 NVG1273   0.0000
    23 NAR        -34.9410    -1.7270     6.5620 N.2          1 NVG1273   0.0000
    24 CAY        -33.9680    -1.5380     5.6810 C.ar         1 NVG1273   0.0000
    25 CAK        -33.9550    -0.9830     4.4040 C.ar         1 NVG1273   0.0000
    26 CAI        -32.7570    -0.9170     3.6980 C.ar         1 NVG1273   0.0000
    27 CAH        -31.5810    -1.4010     4.2700 C.ar         1 NVG1273   0.0000
    28 CAJ        -31.5950    -1.9550     5.5490 C.ar         1 NVG1273   0.0000
    29 CAX        -32.7960    -2.0210     6.2530 C.ar         1 NVG1273   0.0000
    30 NAP        -33.1100    -2.4820     7.4580 N.pl3        1 NVG1273   0.0000
    31 HAA1       -26.0738    -1.5959     6.0227 H            1 NVG1273   0.0000
    32 HAA2       -25.0960    -0.1688     6.1086 H            1 NVG1273   0.0000
    33 HAF        -28.3268    -1.5699     6.7979 H            1 NVG1273   0.0000
    34 HAG        -30.1404    -0.3108     7.7584 H            1 NVG1273   0.0000
    35 HBC        -29.8353     2.7169     9.3473 H            1 NVG1273   0.0000
    36 HBA        -30.3082     3.1795     6.5978 H            1 NVG1273   0.0000
    37 HAE        -29.1057     4.5856     8.0322 H            1 NVG1273   0.0000
    38 HAZ        -32.5514     3.6785     6.7581 H            1 NVG1273   0.0000
    39 HAD        -33.0792     4.9860     8.3640 H            1 NVG1273   0.0000
    40 HBB        -32.4168     1.3761     7.1070 H            1 NVG1273   0.0000
    41 HAN1       -34.5547     1.9361     7.9439 H            1 NVG1273   0.0000
    42 HAN2       -33.9173     2.4610     9.3528 H            1 NVG1273   0.0000
    43 HAQ        -33.1749    -0.0566     9.4974 H            1 NVG1273   0.0000
    44 HAL1       -35.8970    -1.6751    10.5818 H            1 NVG1273   0.0000
    45 HAL2       -34.2689    -1.6689    10.4564 H            1 NVG1273   0.0000
    46 HAM1       -36.1613    -2.8356     8.6501 H            1 NVG1273   0.0000
    47 HAM2       -34.8223    -3.5261     9.2802 H            1 NVG1273   0.0000
    48 HAK        -34.7995    -0.6346     3.9973 H            1 NVG1273   0.0000
    49 HAI        -32.7398    -0.5220     2.7795 H            1 NVG1273   0.0000
    50 HAH        -30.7225    -1.3504     3.7596 H            1 NVG1273   0.0000
    51 HAJ        -30.7509    -2.3020     5.9578 H            1 NVG1273   0.0000
    52 HAP        -32.4750    -2.8904     8.1137 H            1 NVG1273   0.0000
@<TRIPOS>BOND
     1    1    2       2
     2    2    3       1
     3    2    8       1
     4    3    4       2
     5    4    5       1
     6    4    6       1
     7    6    7       2
     8    7    8       1
     9    8    9       1
    10    9   10       1
    11    9   11       1
    12   10   15       1
    13   11   12       1
    14   11   13       1
    15   13   14       1
    16   13   15       1
    17   15   16       1
    18   16   17       1
    19   17   18      am
    20   18   19       2
    21   18   20       1
    22   20   21       1
    23   21   22       1
    24   22   23       2
    25   22   30       1
    26   23   24       1
    27   24   25      ar
    28   24   29      ar
    29   25   26      ar
    30   26   27      ar
    31   27   28      ar
    32   28   29      ar
    33   29   30       1
    34    5   31       1
    35    5   32       1
    36    6   33       1
    37    7   34       1
    38    9   35       1
    39   11   36       1
    40   12   37       1
    41   13   38       1
    42   14   39       1
    43   15   40       1
    44   16   41       1
    45   16   42       1
    46   17   43       1
    47   20   44       1
    48   20   45       1
    49   21   46       1
    50   21   47       1
    51   28   51       1
    52   25   48       1
    53   26   49       1
    54   27   50       1
    55   30   52       1
@<TRIPOS>SUBSTRUCTURE
     1 NVG1273     1 GROUP             4 B     NVG     0 **** NVG B1273
