@<TRIPOS>MOLECULE
3mqg_ACO_5_ligand
   85    87     1     0     0
SMALL
NO_CHARGES


@<TRIPOS>ATOM
     1 N1A         -3.3430     4.4170   -46.5710 N.ar         1 ACO191   0.0000
     2 C2A         -3.9420     4.7190   -47.7520 C.ar         1 ACO191   0.0000
     3 N3A         -3.6960     4.0560   -48.9020 N.ar         1 ACO191   0.0000
     4 C4A         -2.7470     3.0960   -48.8050 C.ar         1 ACO191   0.0000
     5 C5A         -2.1050     2.7390   -47.6270 C.ar         1 ACO191   0.0000
     6 C6A         -2.4110     3.4650   -46.4800 C.ar         1 ACO191   0.0000
     7 N6A         -1.8460     3.2130   -45.2430 N.pl3        1 ACO191   0.0000
     8 N7A         -1.2540     1.6940   -47.8350 N.2          1 ACO191   0.0000
     9 C8A         -1.3750     1.3950   -49.1650 C.2          1 ACO191   0.0000
    10 N9A         -2.2910     2.2020   -49.7150 N.pl3        1 ACO191   0.0000
    11 C1B         -2.7110     2.1630   -51.1140 C.3          1 ACO191   0.0000
    12 C2B         -1.5890     2.3870   -52.1170 C.3          1 ACO191   0.0000
    13 O2B         -1.3590     3.7950   -52.3130 O.3          1 ACO191   0.0000
    14 C3B         -2.0420     1.6180   -53.3550 C.3          1 ACO191   0.0000
    15 O3B         -3.0650     2.4260   -53.9000 O.3          1 ACO191   0.0000
    16 P3B         -2.9170     3.2010   -55.3160 P.3          1 ACO191   0.0000
    17 O7A         -2.1380     2.2840   -56.2230 O.co2        1 ACO191   0.0000
    18 O8A         -4.3260     3.5760   -55.7200 O.co2        1 ACO191  -1.0000
    19 O9A         -2.0220     4.3100   -54.8060 O.co2        1 ACO191  -1.0000
    20 C4B         -2.7500     0.4280   -52.7110 C.3          1 ACO191   0.0000
    21 O4B         -3.1330     0.8390   -51.3680 O.3          1 ACO191   0.0000
    22 C5B         -1.8320    -0.7820   -52.5160 C.3          1 ACO191   0.0000
    23 O5B         -0.6210    -0.3270   -51.9130 O.3          1 ACO191   0.0000
    24 P1A          0.6510    -1.2420   -51.7050 P.3          1 ACO191   0.0000
    25 O1A          1.7200    -0.3570   -51.1570 O.co2        1 ACO191   0.0000
    26 O2A          0.9650    -1.9840   -52.9930 O.co2        1 ACO191  -1.0000
    27 O3A          0.0850    -2.3140   -50.6340 O.3          1 ACO191   0.0000
    28 P2A          0.8940    -3.3630   -49.7210 P.3          1 ACO191   0.0000
    29 O4A          0.2230    -4.7100   -49.8920 O.co2        1 ACO191   0.0000
    30 O5A          2.3610    -3.2370   -49.9820 O.co2        1 ACO191  -1.0000
    31 O6A          0.5340    -2.9050   -48.2330 O.3          1 ACO191   0.0000
    32 CBP          0.7250    -1.4810   -46.2760 C.3          1 ACO191   0.0000
    33 CCP          0.9970    -1.6230   -47.7720 C.3          1 ACO191   0.0000
    34 CDP          1.2770    -2.7240   -45.5650 C.3          1 ACO191   0.0000
    35 CEP         -0.8070    -1.4700   -46.1100 C.3          1 ACO191   0.0000
    36 CAP          1.4170    -0.2030   -45.7670 C.3          1 ACO191   0.0000
    37 OAP          1.1140     0.8940   -46.6460 O.3          1 ACO191   0.0000
    38 C9P          1.0100     0.1880   -44.3430 C.2          1 ACO191   0.0000
    39 O9P          0.0050     0.9100   -44.1370 O.2          1 ACO191   0.0000
    40 N8P          1.8210    -0.3100   -43.3920 N.am         1 ACO191   0.0000
    41 C7P          1.6420    -0.1020   -41.9690 C.3          1 ACO191   0.0000
    42 C6P          2.9710     0.3290   -41.3510 C.3          1 ACO191   0.0000
    43 C5P          2.8640     0.3860   -39.8560 C.2          1 ACO191   0.0000
    44 O5P          1.8520     0.7490   -39.3000 O.2          1 ACO191   0.0000
    45 N4P          3.9380     0.0290   -39.1600 N.am         1 ACO191   0.0000
    46 C3P          4.0090     0.1190   -37.6950 C.3          1 ACO191   0.0000
    47 C2P          5.1100    -0.8380   -37.1690 C.3          1 ACO191   0.0000
    48 S1P          5.6420    -0.6120   -35.4870 S.3          1 ACO191   0.0000
    49 C            6.7470     0.6520   -35.5750 C.2          1 ACO191   0.0000
    50 O            6.8960     1.1050   -36.6850 O.2          1 ACO191   0.0000
    51 CH3          7.5520     1.1870   -34.4310 C.3          1 ACO191   0.0000
    52 H2A         -4.5998     5.4720   -47.7707 H            1 ACO191   0.0000
    53 H6A1        -1.1459     2.5053   -45.1479 H            1 ACO191   0.0000
    54 H6A2        -2.1376     3.7385   -44.4437 H            1 ACO191   0.0000
    55 H8A         -0.8612     0.6867   -49.6490 H            1 ACO191   0.0000
    56 H1B         -3.4591     2.8069   -51.2742 H            1 ACO191   0.0000
    57 H2B         -0.7519     1.9685   -51.7647 H            1 ACO191   0.0000
    58 H7          -1.5074     4.0263   -53.2745 H            1 ACO191   0.0000
    59 H3B         -1.3102     1.3779   -53.9928 H            1 ACO191   0.0000
    60 H4B         -3.5577     0.1722   -53.2422 H            1 ACO191   0.0000
    61 H5B1        -1.6328    -1.2025   -53.4012 H            1 ACO191   0.0000
    62 H5B2        -2.2760    -1.4520   -51.9211 H            1 ACO191   0.0000
    63 HCP1         0.5163    -0.8990   -48.2668 H            1 ACO191   0.0000
    64 HCP2         1.9798    -1.5453   -47.9394 H            1 ACO191   0.0000
    65 HDP1         1.1077    -2.6487   -44.5823 H            1 ACO191   0.0000
    66 HDP2         0.8220    -3.5407   -45.9200 H            1 ACO191   0.0000
    67 HDP3         2.2610    -2.7926   -45.7294 H            1 ACO191   0.0000
    68 HEP1        -1.0366    -1.3782   -45.1411 H            1 ACO191   0.0000
    69 HEP2        -1.1918    -0.6995   -46.6182 H            1 ACO191   0.0000
    70 HEP3        -1.1867    -2.3251   -46.4630 H            1 ACO191   0.0000
    71 HAP          2.4055    -0.3537   -45.7813 H            1 ACO191   0.0000
    72 H21          0.2125     0.7538   -47.0555 H            1 ACO191   0.0000
    73 H8P          2.6010    -0.8617   -43.6874 H            1 ACO191   0.0000
    74 H7P1         1.3358    -0.9533   -41.5428 H            1 ACO191   0.0000
    75 H7P2         0.9570     0.6110   -41.8191 H            1 ACO191   0.0000
    76 H6P1         3.2164     1.2343   -41.6977 H            1 ACO191   0.0000
    77 H6P2         3.6802    -0.3287   -41.6049 H            1 ACO191   0.0000
    78 H4P          4.7346    -0.3168   -39.6559 H            1 ACO191   0.0000
    79 H3P1         3.1267    -0.1406   -37.3023 H            1 ACO191   0.0000
    80 H3P2         4.2289     1.0576   -37.4293 H            1 ACO191   0.0000
    81 H2P1         5.9117    -0.7269   -37.7563 H            1 ACO191   0.0000
    82 H2P2         4.7626    -1.7720   -37.2524 H            1 ACO191   0.0000
    83 HH31         8.1305     1.9367   -34.7523 H            1 ACO191   0.0000
    84 HH32         6.9361     1.5231   -33.7184 H            1 ACO191   0.0000
    85 HH33         8.1268     0.4585   -34.0584 H            1 ACO191   0.0000
@<TRIPOS>BOND
     1    1    2      ar
     2    1    6      ar
     3    2    3      ar
     4    3    4      ar
     5    4    5      ar
     6    4   10       1
     7    5    6      ar
     8    5    8       1
     9    6    7       1
    10    8    9       2
    11    9   10       1
    12   10   11       1
    13   11   12       1
    14   11   21       1
    15   12   13       1
    16   12   14       1
    17   14   15       1
    18   14   20       1
    19   15   16       1
    20   16   17      ar
    21   16   18      ar
    22   16   19      ar
    23   20   21       1
    24   20   22       1
    25   22   23       1
    26   23   24       1
    27   24   25      ar
    28   24   26      ar
    29   24   27       1
    30   27   28       1
    31   28   29      ar
    32   28   30      ar
    33   28   31       1
    34   31   33       1
    35   32   33       1
    36   32   34       1
    37   32   35       1
    38   32   36       1
    39   36   37       1
    40   36   38       1
    41   38   39       2
    42   38   40      am
    43   40   41       1
    44   41   42       1
    45   42   43       1
    46   43   44       2
    47   43   45      am
    48   45   46       1
    49   46   47       1
    50   47   48       1
    51   48   49       1
    52   49   50       2
    53   49   51       1
    54    2   52       1
    55    7   53       1
    56    7   54       1
    57    9   55       1
    58   11   56       1
    59   12   57       1
    60   13   58       1
    61   14   59       1
    62   51   85       1
    63   51   84       1
    64   20   60       1
    65   22   61       1
    66   22   62       1
    67   51   83       1
    68   47   82       1
    69   33   63       1
    70   33   64       1
    71   34   65       1
    72   34   66       1
    73   34   67       1
    74   35   68       1
    75   35   69       1
    76   35   70       1
    77   36   71       1
    78   37   72       1
    79   40   73       1
    80   41   74       1
    81   41   75       1
    82   42   76       1
    83   42   77       1
    84   45   78       1
    85   46   79       1
    86   46   80       1
    87   47   81       1
@<TRIPOS>SUBSTRUCTURE
     1 ACO191      1 GROUP             4 B     ACO     0 **** ACO B 191
