@<TRIPOS>MOLECULE
3epy_COA_1_ligand
   42    44     1     0     0
SMALL
NO_CHARGES


@<TRIPOS>ATOM
     1 N1A         70.8370    16.1910   -17.6500 N.ar         1 COA100   0.0000
     2 C2A         70.3340    17.0750   -16.7250 C.ar         1 COA100   0.0000
     3 N3A         69.0560    16.9200   -16.2260 N.ar         1 COA100   0.0000
     4 C4A         68.2780    15.8960   -16.6470 C.ar         1 COA100   0.0000
     5 C5A         68.7630    14.9880   -17.5720 C.ar         1 COA100   0.0000
     6 C6A         70.0500    15.1300   -18.0660 C.ar         1 COA100   0.0000
     7 N6A         70.5070    14.2510   -18.9510 N.pl3        1 COA100   0.0000
     8 N7A         67.7990    14.0750   -17.8080 N.2          1 COA100   0.0000
     9 C8A         66.7170    14.3820   -17.0580 C.2          1 COA100   0.0000
    10 N9A         66.9980    15.5090   -16.3330 N.pl3        1 COA100   0.0000
    11 C1B         66.0870    16.1960   -15.3910 C.3          1 COA100   0.0000
    12 C2B         64.6500    15.7220   -15.5540 C.3          1 COA100   0.0000
    13 O2B         63.9660    16.5380   -16.4760 O.3          1 COA100   0.0000
    14 C3B         64.0800    15.8800   -14.1640 C.3          1 COA100   0.0000
    15 O3B         63.6610    17.2260   -14.0500 O.3          1 COA100   0.0000
    16 P3B         62.1760    17.6700   -13.6060 P.3          1 COA100   0.0000
    17 O7A         61.1320    16.9790   -14.4520 O.co2        1 COA100   0.0000
    18 O8A         61.9950    17.3070   -12.1520 O.co2        1 COA100  -1.0000
    19 O9A         62.0330    19.1640   -13.7480 O.co2        1 COA100  -1.0000
    20 C4B         65.2900    15.6430   -13.2730 C.3          1 COA100   0.0000
    21 O4B         66.4400    15.9350   -14.0430 O.3          1 COA100   0.0000
    22 C5B         65.4200    14.1880   -12.8540 C.3          1 COA100   0.0000
    23 O5B         64.1990    13.6440   -12.4080 O.3          1 COA100   0.0000
    24 P1A         64.0740    13.1620   -10.8790 P.3          1 COA100   0.0000
    25 O1A         63.1930    14.1130   -10.1100 O.co2        1 COA100   0.0000
    26 O2A         63.5370    11.7530   -10.8100 O.co2        1 COA100  -1.0000
    27 O3A         65.6010    13.2480   -10.3640 O.3          1 COA100   0.0000
    28 P2A         66.4940    11.9520   -10.0120 P.3          1 COA100   0.0000
    29 O4A         67.2420    12.3730    -8.6520 O.co2        1 COA100   0.0000
    30 O5A         65.6050    10.7670    -9.7250 O.co2        1 COA100  -1.0000
    31 O6A         67.4870    11.6320   -11.1030 O.co2        1 COA100  -1.0000
    32 H2A         70.8992    17.8377   -16.4105 H            1 COA100   0.0000
    33 H6A1        69.9289    13.4892   -19.2434 H            1 COA100   0.0000
    34 H6A2        71.4291    14.3511   -19.3248 H            1 COA100   0.0000
    35 H8A         65.8569    13.8723   -17.0364 H            1 COA100   0.0000
    36 H1B         66.1277    17.1815   -15.5555 H            1 COA100   0.0000
    37 H2B         64.6234    14.7644   -15.8409 H            1 COA100   0.0000
    38 H7          63.5367    17.3004   -15.9919 H            1 COA100   0.0000
    39 H3B         63.3393    15.2337   -13.9803 H            1 COA100   0.0000
    40 H4B         65.2507    16.2349   -12.4679 H            1 COA100   0.0000
    41 H5B1        66.0884    14.1262   -12.1128 H            1 COA100   0.0000
    42 H5B2        65.7410    13.6560   -13.6376 H            1 COA100   0.0000
@<TRIPOS>BOND
     1    1    2      ar
     2    1    6      ar
     3    2    3      ar
     4    3    4      ar
     5    4    5      ar
     6    4   10       1
     7    5    6      ar
     8    5    8       1
     9    6    7       1
    10    8    9       2
    11    9   10       1
    12   10   11       1
    13   11   12       1
    14   11   21       1
    15   12   13       1
    16   12   14       1
    17   14   15       1
    18   14   20       1
    19   15   16       1
    20   16   17      ar
    21   16   18      ar
    22   16   19      ar
    23   20   21       1
    24   20   22       1
    25   22   23       1
    26   23   24       1
    27   24   25      ar
    28   24   26      ar
    29   24   27       1
    30   27   28       1
    31   28   29      ar
    32   28   30      ar
    33   28   31      ar
    34    2   32       1
    35    7   33       1
    36    7   34       1
    37    9   35       1
    38   11   36       1
    39   12   37       1
    40   13   38       1
    41   14   39       1
    42   22   41       1
    43   22   42       1
    44   20   40       1
@<TRIPOS>SUBSTRUCTURE
     1 COA100      1 GROUP             4 A     COA     0 **** COA A 100
