@<TRIPOS>MOLECULE
4cpd_NAD_3_ligand
   70    74     1     0     0
SMALL
NO_CHARGES


@<TRIPOS>ATOM
     1 PA          20.2480     7.4230    65.3930 P.3          1 NAD1407   0.0000
     2 O1A         21.2920     7.4470    64.2920 O.co2        1 NAD1407   0.0000
     3 O2A         19.1400     6.4030    65.3910 O.co2        1 NAD1407  -1.0000
     4 O5B         21.0520     7.2040    66.7760 O.3          1 NAD1407   0.0000
     5 C5B         21.1010     5.9170    67.3560 C.3          1 NAD1407   0.0000
     6 C4B         22.5550     5.5350    67.4560 C.3          1 NAD1407   0.0000
     7 O4B         22.7210     5.0510    68.7740 O.3          1 NAD1407   0.0000
     8 C3B         22.9270     4.4200    66.4940 C.3          1 NAD1407   0.0000
     9 O3B         23.9930     4.9240    65.6870 O.3          1 NAD1407   0.0000
    10 C2B         23.2810     3.2090    67.3560 C.3          1 NAD1407   0.0000
    11 O2B         24.5090     2.5440    66.9890 O.3          1 NAD1407   0.0000
    12 C1B         23.4140     3.7990    68.7560 C.3          1 NAD1407   0.0000
    13 N9A         22.7890     2.9600    69.7780 N.pl3        1 NAD1407   0.0000
    14 C8A         21.4850     2.6300    69.8230 C.2          1 NAD1407   0.0000
    15 N7A         21.2270     1.8530    70.9160 N.2          1 NAD1407   0.0000
    16 C5A         22.3940     1.7200    71.5880 C.ar         1 NAD1407   0.0000
    17 C6A         22.8580     1.0460    72.8220 C.ar         1 NAD1407   0.0000
    18 N6A         22.0140     0.3440    73.5930 N.pl3        1 NAD1407   0.0000
    19 N1A         24.1550     1.1470    73.1650 N.ar         1 NAD1407   0.0000
    20 C2A         25.0260     1.8490    72.4210 C.ar         1 NAD1407   0.0000
    21 N3A         24.6820     2.4810    71.2720 N.ar         1 NAD1407   0.0000
    22 C4A         23.4140     2.4570    70.8240 C.ar         1 NAD1407   0.0000
    23 O3          19.4830     8.8720    65.5390 O.3          1 NAD1407   0.0000
    24 PN          20.0920    10.4120    65.6290 P.3          1 NAD1407   0.0000
    25 O1N         19.5640    11.2010    64.4430 O.co2        1 NAD1407   0.0000
    26 O2N         21.5660    10.5510    65.9940 O.co2        1 NAD1407  -1.0000
    27 O5D         19.3290    10.8650    66.9490 O.3          1 NAD1407   0.0000
    28 C5D         19.6120    10.1650    68.1500 C.3          1 NAD1407   0.0000
    29 C4D         18.4730    10.3800    69.1250 C.3          1 NAD1407   0.0000
    30 O4D         18.3420    11.7840    69.3740 O.3          1 NAD1407   0.0000
    31 C3D         17.1320     9.8960    68.5760 C.3          1 NAD1407   0.0000
    32 O3D         16.4410     9.1570    69.5960 O.3          1 NAD1407   0.0000
    33 C2D         16.3630    11.1590    68.2410 C.3          1 NAD1407   0.0000
    34 O2D         14.9360    10.9930    68.3410 O.3          1 NAD1407   0.0000
    35 C1D         16.9400    12.0880    69.3080 C.3          1 NAD1407   0.0000
    36 N1N         16.7610    13.5130    69.0520 N.ar         1 NAD1407   1.0000
    37 C2N         16.2610    14.2550    70.0330 C.ar         1 NAD1407   0.0000
    38 C3N         16.0840    15.6180    69.8440 C.ar         1 NAD1407   0.0000
    39 C7N         15.5310    16.4560    70.9590 C.2          1 NAD1407   0.0000
    40 O7N         14.8480    17.4300    70.6830 O.2          1 NAD1407   0.0000
    41 N7N         15.8160    16.1470    72.2190 N.am         1 NAD1407   0.0000
    42 C4N         16.4200    16.2090    68.6200 C.ar         1 NAD1407   0.0000
    43 C5N         16.9350    15.4090    67.6150 C.ar         1 NAD1407   0.0000
    44 C6N         17.1010    14.0510    67.8660 C.ar         1 NAD1407   0.0000
    45 H5B1        20.6124     5.2617    66.7799 H            1 NAD1407   0.0000
    46 H5B2        20.6869     5.9343    68.2661 H            1 NAD1407   0.0000
    47 H4B         23.1360     6.3345    67.3033 H            1 NAD1407   0.0000
    48 H3B         22.1420     4.2012    65.9144 H            1 NAD1407   0.0000
    49 H5          24.7674     5.1666    66.2713 H            1 NAD1407   0.0000
    50 H2B         22.5264     2.5531    67.3388 H            1 NAD1407   0.0000
    51 H7          25.2713     2.9497    67.4932 H            1 NAD1407   0.0000
    52 H1B         24.3793     3.9409    68.9755 H            1 NAD1407   0.0000
    53 H8A         20.8013     2.9138    69.1507 H            1 NAD1407   0.0000
    54 H6A1        22.3489    -0.1033    74.4223 H            1 NAD1407   0.0000
    55 H6A2        21.0499     0.2680    73.3384 H            1 NAD1407   0.0000
    56 H2A         25.9752     1.9083    72.7301 H            1 NAD1407   0.0000
    57 H5D1        20.4627    10.5098    68.5467 H            1 NAD1407   0.0000
    58 H5D2        19.7068     9.1888    67.9549 H            1 NAD1407   0.0000
    59 H4D         18.6735     9.9061    69.9824 H            1 NAD1407   0.0000
    60 H3D         17.2648     9.3344    67.7594 H            1 NAD1407   0.0000
    61 H17         16.9942     8.3704    69.8704 H            1 NAD1407   0.0000
    62 H2D         16.6109    11.4837    67.3282 H            1 NAD1407   0.0000
    63 H19         14.5732    11.6299    69.0213 H            1 NAD1407   0.0000
    64 H1D         16.5214    11.8649    70.1883 H            1 NAD1407   0.0000
    65 H2N         16.0129    13.8329    70.9049 H            1 NAD1407   0.0000
    66 H7N1        15.4496    16.7027    72.9653 H            1 NAD1407   0.0000
    67 H7N2        16.3970    15.3586    72.4213 H            1 NAD1407   0.0000
    68 H4N         16.2904    17.1899    68.4748 H            1 NAD1407   0.0000
    69 H5N         17.1823    15.7987    66.7279 H            1 NAD1407   0.0000
    70 H6N         17.4803    13.4631    67.1515 H            1 NAD1407   0.0000
@<TRIPOS>BOND
     1    1    2      ar
     2    1    3      ar
     3    1    4       1
     4    1   23       1
     5    4    5       1
     6    5    6       1
     7    6    7       1
     8    6    8       1
     9    7   12       1
    10    8    9       1
    11    8   10       1
    12   10   11       1
    13   10   12       1
    14   12   13       1
    15   13   14       1
    16   13   22       1
    17   14   15       2
    18   15   16       1
    19   16   17      ar
    20   16   22      ar
    21   17   18       1
    22   17   19      ar
    23   19   20      ar
    24   20   21      ar
    25   21   22      ar
    26   23   24       1
    27   24   25      ar
    28   24   26      ar
    29   24   27       1
    30   27   28       1
    31   28   29       1
    32   29   30       1
    33   29   31       1
    34   30   35       1
    35   31   32       1
    36   31   33       1
    37   33   34       1
    38   33   35       1
    39   35   36       1
    40   36   37      ar
    41   36   44      ar
    42   37   38      ar
    43   38   39       1
    44   38   42      ar
    45   39   40       2
    46   39   41      am
    47   42   43      ar
    48   43   44      ar
    49   44   70       1
    50    5   45       1
    51    5   46       1
    52    6   47       1
    53    8   48       1
    54    9   49       1
    55   10   50       1
    56   11   51       1
    57   12   52       1
    58   14   53       1
    59   18   54       1
    60   18   55       1
    61   20   56       1
    62   43   69       1
    63   28   57       1
    64   28   58       1
    65   29   59       1
    66   31   60       1
    67   32   61       1
    68   33   62       1
    69   34   63       1
    70   35   64       1
    71   37   65       1
    72   41   66       1
    73   41   67       1
    74   42   68       1
@<TRIPOS>SUBSTRUCTURE
     1 NAD1407     1 GROUP             4 D     NAD     0 **** NAD D1407
