@<TRIPOS>MOLECULE
5alu_HD2_2_ligand
   65    70     1     0     0
SMALL
NO_CHARGES


@<TRIPOS>ATOM
     1 C1          -4.9940    -6.1920    23.7840 C.ar         1 HD21551   0.0000
     2 C2          -5.1410    -7.1630    22.8180 C.ar         1 HD21551   0.0000
     3 C3          -4.0120    -7.8800    22.4600 C.ar         1 HD21551   0.0000
     4 N4          -2.8310    -7.6040    23.0390 N.ar         1 HD21551   0.0000
     5 C5          -2.7670    -6.6470    23.9800 C.ar         1 HD21551   0.0000
     6 N6          -3.8280    -5.9240    24.3780 N.ar         1 HD21551   0.0000
     7 N7          -1.4870    -6.4550    24.5520 N.pl3        1 HD21551   0.0000
     8 C8          -4.0060    -8.9680    21.4120 C.3          1 HD21551   0.0000
     9 C9          -3.2490    -8.4810    20.1960 C.3          1 HD21551   0.0000
    10 C10         -2.0580    -9.3880    20.0080 C.3          1 HD21551   0.0000
    11 C11         -2.0210   -10.3460    21.1730 C.3          1 HD21551   0.0000
    12 C12         -3.3410   -10.2410    21.8950 C.3          1 HD21551   0.0000
    13 C13         -6.4760    -7.3830    22.2390 C.2          1 HD21551   0.0000
    14 O14         -6.6090    -7.4470    21.0270 O.2          1 HD21551   0.0000
    15 N15         -7.4620    -7.5030    23.1940 N.am         1 HD21551   0.0000
    16 C16         -8.8290    -7.8050    22.8390 C.3          1 HD21551   0.0000
    17 C17         -9.5030    -6.7180    21.9980 C.3          1 HD21551   0.0000
    18 C18         -9.6410    -5.4220    22.7920 C.3          1 HD21551   0.0000
    19 C19        -10.4620    -5.6730    24.0420 C.3          1 HD21551   0.0000
    20 C20         -9.7710    -6.7190    24.8980 C.3          1 HD21551   0.0000
    21 C21         -9.6300    -8.0140    24.1170 C.3          1 HD21551   0.0000
    22 C22        -11.0020    -8.5060    23.7230 C.3          1 HD21551   0.0000
    23 C23        -11.6930    -7.4790    22.8490 C.3          1 HD21551   0.0000
    24 C24        -11.8320    -6.1830    23.6290 C.3          1 HD21551   0.0000
    25 C25        -10.8840    -7.2130    21.5980 C.3          1 HD21551   0.0000
    26 O26        -12.9590    -8.0080    22.4770 O.3          1 HD21551   0.0000
    27 C27         -1.3650    -5.4060    25.5650 C.3          1 HD21551   0.0000
    28 C28         -0.2750    -5.7320    26.5500 C.3          1 HD21551   0.0000
    29 C29          0.9700    -5.2050    25.8840 C.3          1 HD21551   0.0000
    30 O30          0.5770    -4.1690    24.9840 O.3          1 HD21551   0.0000
    31 C31         -0.8490    -4.1520    24.8990 C.3          1 HD21551   0.0000
    32 H1          -5.7985    -5.6626    24.0534 H            1 HD21551   0.0000
    33 H2          -0.7023    -7.0104    24.2768 H            1 HD21551   0.0000
    34 H3          -4.9489    -9.1723    21.1488 H            1 HD21551   0.0000
    35 H4          -2.9421    -7.5401    20.3394 H            1 HD21551   0.0000
    36 H5          -3.8383    -8.5200    19.3890 H            1 HD21551   0.0000
    37 H6          -1.2177    -8.8463    19.9860 H            1 HD21551   0.0000
    38 H7          -2.1493    -9.8966    19.1518 H            1 HD21551   0.0000
    39 H8          -1.2741   -10.1015    21.7914 H            1 HD21551   0.0000
    40 H9          -1.8873   -11.2800    20.8418 H            1 HD21551   0.0000
    41 H10         -3.9145   -11.0316    21.6801 H            1 HD21551   0.0000
    42 H11         -3.1904   -10.1971    22.8826 H            1 HD21551   0.0000
    43 H12         -7.2250    -7.3778    24.1574 H            1 HD21551   0.0000
    44 H13         -8.8384    -8.6583    22.3177 H            1 HD21551   0.0000
    45 H14         -8.9594    -6.5483    21.1760 H            1 HD21551   0.0000
    46 H15        -10.0967    -4.7335    22.2278 H            1 HD21551   0.0000
    47 H16         -8.7330    -5.0928    23.0513 H            1 HD21551   0.0000
    48 H17        -10.5593    -4.8228    24.5594 H            1 HD21551   0.0000
    49 H18        -10.3139    -6.8855    25.7211 H            1 HD21551   0.0000
    50 H19         -8.8639    -6.3882    25.1583 H            1 HD21551   0.0000
    51 H20         -9.1787    -8.7010    24.6865 H            1 HD21551   0.0000
    52 H21        -11.5474    -8.6596    24.5470 H            1 HD21551   0.0000
    53 H22        -10.9129    -9.3642    23.2174 H            1 HD21551   0.0000
    54 H23        -12.2807    -5.4980    23.0551 H            1 HD21551   0.0000
    55 H24        -12.3843    -6.3465    24.4464 H            1 HD21551   0.0000
    56 H25        -10.7974    -8.0571    21.0688 H            1 HD21551   0.0000
    57 H26        -11.3420    -6.5178    21.0440 H            1 HD21551   0.0000
    58 H27        -13.4385    -7.3488    21.8978 H            1 HD21551   0.0000
    59 H28         -2.2367    -5.2416    26.0267 H            1 HD21551   0.0000
    60 H29         -0.2107    -6.7188    26.6983 H            1 HD21551   0.0000
    61 H30         -0.4343    -5.2732    27.4242 H            1 HD21551   0.0000
    62 H31          1.4234    -5.9400    25.3798 H            1 HD21551   0.0000
    63 H32          1.5953    -4.8383    26.5729 H            1 HD21551   0.0000
    64 H33         -1.2083    -3.3451    25.3678 H            1 HD21551   0.0000
    65 H34         -1.1327    -4.1344    23.9402 H            1 HD21551   0.0000
@<TRIPOS>BOND
     1    1    2      ar
     2    1    6      ar
     3    2    3      ar
     4    2   13       1
     5    3    4      ar
     6    3    8       1
     7    4    5      ar
     8    5    6      ar
     9    5    7       1
    10    7   27       1
    11    8    9       1
    12    8   12       1
    13    9   10       1
    14   10   11       1
    15   11   12       1
    16   13   14       2
    17   13   15      am
    18   15   16       1
    19   16   17       1
    20   16   21       1
    21   17   18       1
    22   17   25       1
    23   18   19       1
    24   19   20       1
    25   19   24       1
    26   20   21       1
    27   21   22       1
    28   22   23       1
    29   23   24       1
    30   23   25       1
    31   23   26       1
    32   27   28       1
    33   27   31       1
    34   28   29       1
    35   29   30       1
    36   30   31       1
    37    1   32       1
    38    7   33       1
    39    8   34       1
    40    9   35       1
    41    9   36       1
    42   10   37       1
    43   10   38       1
    44   11   39       1
    45   11   40       1
    46   12   41       1
    47   12   42       1
    48   15   43       1
    49   16   44       1
    50   17   45       1
    51   18   46       1
    52   18   47       1
    53   19   48       1
    54   20   49       1
    55   20   50       1
    56   21   51       1
    57   22   52       1
    58   22   53       1
    59   24   54       1
    60   24   55       1
    61   25   56       1
    62   25   57       1
    63   26   58       1
    64   27   59       1
    65   28   60       1
    66   28   61       1
    67   29   62       1
    68   29   63       1
    69   31   64       1
    70   31   65       1
@<TRIPOS>SUBSTRUCTURE
     1 HD21551     1 GROUP             4 A     HD2     0 **** HD2 A1551
