@<TRIPOS>MOLECULE
4om8_NAD_1_ligand
   70    74     1     0     0
SMALL
NO_CHARGES


@<TRIPOS>ATOM
     1 PA          -0.1370     1.0880    43.1080 P.3          1 NAD402   0.0000
     2 O1A          0.6140     2.2470    43.7410 O.co2        1 NAD402   0.0000
     3 O2A         -0.5440    -0.1140    43.9460 O.co2        1 NAD402  -1.0000
     4 O5B          0.7450     0.5550    41.8720 O.3          1 NAD402   0.0000
     5 C5B          1.3800     1.4430    40.9510 C.3          1 NAD402   0.0000
     6 C4B          2.4680     0.6600    40.2320 C.3          1 NAD402   0.0000
     7 O4B          2.9740     1.4360    39.1450 O.3          1 NAD402   0.0000
     8 C3B          3.6400     0.3570    41.1650 C.3          1 NAD402   0.0000
     9 O3B          3.8970    -1.0530    41.1970 O.3          1 NAD402   0.0000
    10 C2B          4.7980     1.1380    40.5560 C.3          1 NAD402   0.0000
    11 O2B          6.0850     0.5220    40.7200 O.3          1 NAD402   0.0000
    12 C1B          4.3890     1.2000    39.0980 C.3          1 NAD402   0.0000
    13 N9A          5.0190     2.2620    38.2940 N.pl3        1 NAD402   0.0000
    14 C8A          5.3670     3.5010    38.6800 C.2          1 NAD402   0.0000
    15 N7A          5.8960     4.1940    37.6410 N.2          1 NAD402   0.0000
    16 C5A          5.8830     3.3900    36.5650 C.ar         1 NAD402   0.0000
    17 C6A          6.2930     3.4850    35.1530 C.ar         1 NAD402   0.0000
    18 N6A          6.8400     4.6200    34.6530 N.pl3        1 NAD402   0.0000
    19 N1A          6.1050     2.3990    34.3720 N.ar         1 NAD402   0.0000
    20 C2A          5.5680     1.2620    34.8470 C.ar         1 NAD402   0.0000
    21 N3A          5.1740     1.1060    36.1210 N.ar         1 NAD402   0.0000
    22 C4A          5.3100     2.1170    37.0060 C.ar         1 NAD402   0.0000
    23 O3          -1.3870     1.7330    42.3200 O.3          1 NAD402   0.0000
    24 PN          -2.8230     1.0510    42.0680 P.3          1 NAD402   0.0000
    25 O1N         -3.6480     1.1270    43.3390 O.co2        1 NAD402   0.0000
    26 O2N         -2.6950    -0.2830    41.3680 O.co2        1 NAD402  -1.0000
    27 O5D         -3.4730     2.0860    41.0310 O.3          1 NAD402   0.0000
    28 C5D         -2.9350     2.2760    39.7160 C.3          1 NAD402   0.0000
    29 C4D         -3.8860     3.1950    38.9580 C.3          1 NAD402   0.0000
    30 O4D         -5.1840     2.6110    39.0120 O.3          1 NAD402   0.0000
    31 C3D         -4.0160     4.5660    39.6020 C.3          1 NAD402   0.0000
    32 O3D         -4.3100     5.4960    38.5560 O.3          1 NAD402   0.0000
    33 C2D         -5.2400     4.4430    40.4890 C.3          1 NAD402   0.0000
    34 O2D         -5.9150     5.6940    40.6560 O.3          1 NAD402   0.0000
    35 C1D         -6.1010     3.4830    39.6860 C.3          1 NAD402   0.0000
    36 N1N         -7.0500     2.6850    40.4790 N.ar         1 NAD402   1.0000
    37 C2N         -6.7870     2.2850    41.7400 C.ar         1 NAD402   0.0000
    38 C3N         -7.7200     1.5100    42.4340 C.ar         1 NAD402   0.0000
    39 C7N         -7.5080     1.0610    43.8560 C.2          1 NAD402   0.0000
    40 O7N         -8.4437     0.8611    44.6162 O.2          1 NAD402   0.0000
    41 N7N         -6.2471     0.9109    44.2580 N.am         1 NAD402   0.0000
    42 C4N         -8.9120     1.1500    41.8160 C.ar         1 NAD402   0.0000
    43 C5N         -9.1460     1.5660    40.5130 C.ar         1 NAD402   0.0000
    44 C6N         -8.1860     2.3290    39.8640 C.ar         1 NAD402   0.0000
    45 H5B1         1.7838     2.2137    41.4439 H            1 NAD402   0.0000
    46 H5B2         0.7115     1.7835    40.2898 H            1 NAD402   0.0000
    47 H4B          2.0883    -0.1967    39.8830 H            1 NAD402   0.0000
    48 H3B          3.4437     0.6930    42.0862 H            1 NAD402   0.0000
    49 H5           4.1213    -1.3719    40.2761 H            1 NAD402   0.0000
    50 H2B          4.8173     2.0618    40.9384 H            1 NAD402   0.0000
    51 H7           6.2667    -0.0822    39.9441 H            1 NAD402   0.0000
    52 H1B          4.5620     0.3137    38.6684 H            1 NAD402   0.0000
    53 H8A          5.2519     3.8623    39.6053 H            1 NAD402   0.0000
    54 H6A1         7.1112     4.6628    33.6914 H            1 NAD402   0.0000
    55 H6A2         6.9723     5.4145    35.2457 H            1 NAD402   0.0000
    56 H2A          5.4561     0.4921    34.2187 H            1 NAD402   0.0000
    57 H5D1        -2.8640     1.3961    39.2461 H            1 NAD402   0.0000
    58 H5D2        -2.0295     2.6962    39.7754 H            1 NAD402   0.0000
    59 H4D         -3.5899     3.2881    38.0074 H            1 NAD402   0.0000
    60 H3D         -3.1983     4.8216    40.1177 H            1 NAD402   0.0000
    61 H17         -4.4032     6.4136    38.9423 H            1 NAD402   0.0000
    62 H2D         -4.9987     4.0480    41.3754 H            1 NAD402   0.0000
    63 H19         -6.8919     5.5300    40.7931 H            1 NAD402   0.0000
    64 H1D         -6.6116     4.0039    39.0019 H            1 NAD402   0.0000
    65 H2N         -5.9256     2.5427    42.1776 H            1 NAD402   0.0000
    66 H7N1        -6.0515     0.6449    45.2019 H            1 NAD402   0.0000
    67 H7N2        -5.4960     1.0643    43.6159 H            1 NAD402   0.0000
    68 H4N         -9.5904     0.5998    42.3029 H            1 NAD402   0.0000
    69 H5N         -9.9959     1.3189    40.0476 H            1 NAD402   0.0000
    70 H6N         -8.3448     2.6185    38.9201 H            1 NAD402   0.0000
@<TRIPOS>BOND
     1    1    2      ar
     2    1    3      ar
     3    1    4       1
     4    1   23       1
     5    4    5       1
     6    5    6       1
     7    6    7       1
     8    6    8       1
     9    7   12       1
    10    8    9       1
    11    8   10       1
    12   10   11       1
    13   10   12       1
    14   12   13       1
    15   13   14       1
    16   13   22       1
    17   14   15       2
    18   15   16       1
    19   16   17      ar
    20   16   22      ar
    21   17   18       1
    22   17   19      ar
    23   19   20      ar
    24   20   21      ar
    25   21   22      ar
    26   23   24       1
    27   24   25      ar
    28   24   26      ar
    29   24   27       1
    30   27   28       1
    31   28   29       1
    32   29   30       1
    33   29   31       1
    34   30   35       1
    35   31   32       1
    36   31   33       1
    37   33   34       1
    38   33   35       1
    39   35   36       1
    40   36   37      ar
    41   36   44      ar
    42   37   38      ar
    43   38   39       1
    44   38   42      ar
    45   39   40       2
    46   39   41      am
    47   42   43      ar
    48   43   44      ar
    49   44   70       1
    50    5   45       1
    51    5   46       1
    52    6   47       1
    53    8   48       1
    54    9   49       1
    55   10   50       1
    56   11   51       1
    57   12   52       1
    58   14   53       1
    59   18   54       1
    60   18   55       1
    61   20   56       1
    62   43   69       1
    63   28   57       1
    64   28   58       1
    65   29   59       1
    66   31   60       1
    67   32   61       1
    68   33   62       1
    69   34   63       1
    70   35   64       1
    71   37   65       1
    72   41   66       1
    73   41   67       1
    74   42   68       1
@<TRIPOS>SUBSTRUCTURE
     1 NAD402      1 GROUP             4 A     NAD     0 **** NAD A 402
