@<TRIPOS>MOLECULE
3d6y_BER_1_ligand
   43    47     1     0     0
SMALL
NO_CHARGES


@<TRIPOS>ATOM
     1 C1          58.2700    24.3480    68.0980 C.ar         1 BER964   0.0000
     2 C2          58.2600    25.0430    69.4320 C.ar         1 BER964   0.0000
     3 N1          59.2680    24.8090    67.1040 N.ar         1 BER964   1.0000
     4 C3          57.3610    23.2610    67.7800 C.ar         1 BER964   0.0000
     5 C4          59.5080    25.8200    69.8150 C.ar         1 BER964   0.0000
     6 C5          57.1040    24.9890    70.3270 C.ar         1 BER964   0.0000
     7 C6          59.3320    24.2000    65.8010 C.ar         1 BER964   0.0000
     8 C7          60.2600    25.9410    67.4670 C.3          1 BER964   0.0000
     9 C8          57.4460    22.6560    66.4900 C.ar         1 BER964   0.0000
    10 C9          59.5460    26.5050    71.0970 C.ar         1 BER964   0.0000
    11 C10         60.7210    25.8860    68.8320 C.3          1 BER964   0.0000
    12 C11         57.1590    25.6780    71.5900 C.ar         1 BER964   0.0000
    13 C12         58.4280    23.1160    65.4660 C.ar         1 BER964   0.0000
    14 C13         56.4670    21.4560    66.1370 C.ar         1 BER964   0.0000
    15 C14         58.3730    26.4380    71.9940 C.ar         1 BER964   0.0000
    16 O1          56.2360    25.7910    72.5920 O.3          1 BER964   0.0000
    17 C15         58.4840    22.4780    64.1310 C.ar         1 BER964   0.0000
    18 C16         56.5680    20.8600    64.8380 C.ar         1 BER964   0.0000
    19 O2          58.1380    26.9890    73.2550 O.3          1 BER964   0.0000
    20 C17         56.6980    26.9140    73.4300 C.3          1 BER964   0.0000
    21 C18         57.5340    21.3170    63.8110 C.ar         1 BER964   0.0000
    22 O3          59.4610    23.0270    63.2240 O.3          1 BER964   0.0000
    23 O4          57.5640    20.6560    62.5250 O.3          1 BER964   0.0000
    24 C19         59.7090    22.5970    61.8630 C.3          1 BER964   0.0000
    25 C20         56.6870    19.5380    62.1540 C.3          1 BER964   0.0000
    26 H1          56.6902    22.9433    68.4501 H            1 BER964   0.0000
    27 H2          56.2847    24.4792    70.0645 H            1 BER964   0.0000
    28 H3          59.9979    24.5234    65.1286 H            1 BER964   0.0000
    29 H4          59.8047    26.8194    67.3218 H            1 BER964   0.0000
    30 H5          61.0533    25.8727    66.8620 H            1 BER964   0.0000
    31 H6          60.3599    27.0178    71.3699 H            1 BER964   0.0000
    32 H7          61.2894    25.0726    68.9552 H            1 BER964   0.0000
    33 H8          61.2616    26.7036    69.0303 H            1 BER964   0.0000
    34 H9          55.7984    21.1255    66.8032 H            1 BER964   0.0000
    35 H10         55.9581    20.1000    64.6137 H            1 BER964   0.0000
    36 H11         56.4744    26.7445    74.3898 H            1 BER964   0.0000
    37 H12         56.2684    27.7669    73.1333 H            1 BER964   0.0000
    38 H13         60.4411    23.1510    61.4666 H            1 BER964   0.0000
    39 H14         59.9812    21.6348    61.8618 H            1 BER964   0.0000
    40 H15         58.8759    22.7085    61.3212 H            1 BER964   0.0000
    41 H16         56.8923    19.2494    61.2188 H            1 BER964   0.0000
    42 H17         56.8392    18.7731    62.7799 H            1 BER964   0.0000
    43 H18         55.7323    19.8302    62.2107 H            1 BER964   0.0000
@<TRIPOS>BOND
     1    1    2       1
     2    1    3      ar
     3    1    4      ar
     4    2    5      ar
     5    2    6      ar
     6    3    7      ar
     7    3    8       1
     8    4    9      ar
     9    5   10      ar
    10    5   11       1
    11    6   12      ar
    12    7   13      ar
    13    8   11       1
    14    9   13      ar
    15    9   14      ar
    16   10   15      ar
    17   12   15      ar
    18   12   16       1
    19   13   17      ar
    20   14   18      ar
    21   15   19       1
    22   16   20       1
    23   17   21      ar
    24   17   22       1
    25   18   21      ar
    26   19   20       1
    27   21   23       1
    28   22   24       1
    29   23   25       1
    30    4   26       1
    31    6   27       1
    32    7   28       1
    33    8   29       1
    34    8   30       1
    35   10   31       1
    36   11   32       1
    37   11   33       1
    38   14   34       1
    39   18   35       1
    40   20   36       1
    41   20   37       1
    42   24   38       1
    43   24   39       1
    44   24   40       1
    45   25   41       1
    46   25   42       1
    47   25   43       1
@<TRIPOS>SUBSTRUCTURE
     1 BER964      1 GROUP             4 A     BER     0 **** BER A 964
