@<TRIPOS>MOLECULE
./coach420/1br6/ligand.pdb
 23 25 0 0 0
SMALL
GASTEIGER

@<TRIPOS>ATOM
      1  C2         0.6780    0.7050   10.6750 C.2   301  PT1301      0.2936
      2  C3         0.7980    1.3100    9.4140 C.2   301  PT1301      0.1802
      3  C5         2.1250    1.5180    8.9350 C.2   301  PT1301      0.2384
      4  N6        -0.2510    1.6380    8.6590 N.2   301  PT1301     -0.2562
      5  C7         2.9780    0.6080   10.8590 C.2   301  PT1301      0.3028
      6  N9         3.2270    1.1720    9.6630 N.2   301  PT1301     -0.3476
      7  C10       -0.0280    2.2070    7.4500 C.3   301  PT1301      0.1660
      8  N11        4.0760    0.3350   11.6120 N.pl3 301  PT1301     -0.0763
      9  C12        1.2760    2.4270    6.9810 C.2   301  PT1301      0.1011
     10  C21       -0.1390    7.7190   10.8800 C.2   301  PT1301      0.3878
     11  O22        0.9750    8.3470   11.0220 O.co2 301  PT1301     -0.2406
     12  O1        -0.5690    0.4770   11.1970 O.2   301  PT1301     -0.2661
     13  N4         1.7830    0.3570   11.4200 N.am  301  PT1301     -0.1279
     14  N8         2.3360    2.0850    7.7300 N.2   301  PT1301     -0.2157
     15  C13       -1.2130    2.7380    6.6770 C.3   301  PT1301      0.1425
     16  N14       -1.1070    4.1650    6.5300 N.pl3 301  PT1301     -0.2351
     17  C15       -0.8550    4.9850    7.6240 C.ar  301  PT1301      0.0654
     18  C16        0.1940    5.9150    7.5660 C.ar  301  PT1301      0.0163
     19  C17       -1.6500    4.9390    8.7720 C.ar  301  PT1301      0.0163
     20  C18        0.4380    6.7850    8.6300 C.ar  301  PT1301      0.0079
     21  C19       -1.3980    5.8170    9.8350 C.ar  301  PT1301      0.0079
     22  C20       -0.3630    6.7460    9.7560 C.ar  301  PT1301      0.0799
     23  O23       -1.0860    7.9440   11.7240 O.co2 301  PT1301     -0.2406
@<TRIPOS>BOND
     1     1     2    1
     2     1    12    2
     3     1    13   am
     4     2     4    2
     5     2     3    1
     6     3    14    1
     7     3     6    2
     8     4     7    1
     9     5     6    2
    10     5    13    1
    11     5     8    1
    12     7    15    1
    13     7     9    1
    14     9    14    2
    15    10    22    1
    16    10    11   ar
    17    10    23   ar
    18    15    16    1
    19    16    17    1
    20    17    18   ar
    21    17    19   ar
    22    18    20   ar
    23    19    21   ar
    24    20    22   ar
    25    21    22   ar
