@<TRIPOS>MOLECULE
3sor_O58_1_ligand
   62    65     1     0     0
SMALL
NO_CHARGES


@<TRIPOS>ATOM
     1 C1          -5.7410   -12.7530    12.7750 C.ar         1 O58626   0.0000
     2 C2          -6.3280   -11.4860    12.6450 C.ar         1 O58626   0.0000
     3 C3          -7.6600   -11.3770    12.2450 C.ar         1 O58626   0.0000
     4 C4          -8.3940   -12.5270    11.9470 C.ar         1 O58626   0.0000
     5 C5          -7.8220   -13.8080    12.0670 C.ar         1 O58626   0.0000
     6 C6          -6.4720   -13.9430    12.4940 C.ar         1 O58626   0.0000
     7 N7          -5.8330   -15.2430    12.5930 N.pl3        1 O58626   0.0000
     8 C8          -4.6200   -15.6540    12.0810 C.2          1 O58626   0.0000
     9 N9          -4.4050   -16.9180    12.3680 N.2          1 O58626   0.0000
    10 N10         -5.5050   -17.3310    13.0520 N.2          1 O58626   0.0000
    11 N11         -6.3690   -16.3430    13.1790 N.2          1 O58626   0.0000
    12 CL12        -8.4220    -9.8400    12.0670 Cl           1 O58626   0.0000
    13 C13         -8.7490   -14.9370    11.7110 C.3          1 O58626   0.0000
    14 C14         -9.4440   -15.4740    12.9500 C.3          1 O58626   0.0000
    15 C15        -10.5290   -16.4490    12.5820 C.2          1 O58626   0.0000
    16 N16        -10.2790   -17.3120    11.5280 N.am         1 O58626   0.0000
    17 O17        -11.5800   -16.4600    13.1920 O.2          1 O58626   0.0000
    18 C18        -11.3390   -18.2650    11.1430 C.3          1 O58626   0.0000
    19 C19        -11.1420   -19.5320    11.9900 C.2          1 O58626   0.0000
    20 O20        -10.1200   -20.2130    11.8490 O.2          1 O58626   0.0000
    21 N21        -12.2260   -19.7350    12.8270 N.am         1 O58626   0.0000
    22 C22        -12.5310   -20.7420    13.7710 C.ar         1 O58626   0.0000
    23 C23        -13.8210   -20.9090    14.2630 C.ar         1 O58626   0.0000
    24 C24        -14.1210   -21.8980    15.2120 C.ar         1 O58626   0.0000
    25 C25        -13.1260   -22.7590    15.6730 C.ar         1 O58626   0.0000
    26 C26        -11.8240   -22.5960    15.1790 C.ar         1 O58626   0.0000
    27 C27        -11.5220   -21.5960    14.2360 C.ar         1 O58626   0.0000
    28 C28        -11.3850   -18.6900     9.6570 C.3          1 O58626   0.0000
    29 C29        -12.4800   -19.6910     9.3220 C.ar         1 O58626   0.0000
    30 C30        -13.8050   -19.5270     9.7750 C.ar         1 O58626   0.0000
    31 C31        -14.7960   -20.4670     9.4550 C.ar         1 O58626   0.0000
    32 C32        -14.4870   -21.5740     8.6600 C.ar         1 O58626   0.0000
    33 C33        -13.1840   -21.7550     8.1980 C.ar         1 O58626   0.0000
    34 C34        -12.1930   -20.8150     8.5330 C.ar         1 O58626   0.0000
    35 C35        -13.4560   -23.8270    16.6900 C.3          1 O58626   0.0000
    36 C36        -12.9890   -25.2220    16.3580 C.2          1 O58626   0.0000
    37 O37        -12.0580   -25.6370    17.2500 O.co2        1 O58626   0.0000
    38 O38        -13.3440   -25.9520    15.4500 O.co2        1 O58626  -1.0000
    39 H1          -4.7885   -12.8226    13.0714 H            1 O58626   0.0000
    40 H2          -5.7934   -10.6633    12.8384 H            1 O58626   0.0000
    41 H3          -9.3426   -12.4392    11.6430 H            1 O58626   0.0000
    42 H4          -3.9924   -15.0718    11.5641 H            1 O58626   0.0000
    43 H5          -8.2217   -15.6727    11.2858 H            1 O58626   0.0000
    44 H6          -9.4378   -14.6051    11.0665 H            1 O58626   0.0000
    45 H7          -9.8479   -14.7109    13.4546 H            1 O58626   0.0000
    46 H8          -8.7712   -15.9366    13.5274 H            1 O58626   0.0000
    47 H9          -9.4055   -17.2903    11.0416 H            1 O58626   0.0000
    48 H10        -12.2231   -17.8632    11.3814 H            1 O58626   0.0000
    49 H11        -12.9318   -19.0310    12.7483 H            1 O58626   0.0000
    50 H12        -14.5512   -20.3108    13.9330 H            1 O58626   0.0000
    51 H13        -15.0544   -21.9859    15.5599 H            1 O58626   0.0000
    52 H14        -11.0968   -23.2013    15.5026 H            1 O58626   0.0000
    53 H15        -10.5865   -21.4948    13.8974 H            1 O58626   0.0000
    54 H16        -10.5039   -19.1003     9.4219 H            1 O58626   0.0000
    55 H17        -11.5299   -17.8709     9.1020 H            1 O58626   0.0000
    56 H18        -14.0414   -18.7305    10.3315 H            1 O58626   0.0000
    57 H19        -15.7276   -20.3444     9.7973 H            1 O58626   0.0000
    58 H20        -15.1990   -22.2350     8.4230 H            1 O58626   0.0000
    59 H21        -12.9557   -22.5475     7.6325 H            1 O58626   0.0000
    60 H22        -11.2599   -20.9513     8.2003 H            1 O58626   0.0000
    61 H23        -14.4502   -23.8537    16.7941 H            1 O58626   0.0000
    62 H24        -13.0369   -23.5625    17.5585 H            1 O58626   0.0000
@<TRIPOS>BOND
     1    1    2      ar
     2    1    6      ar
     3    2    3      ar
     4    3    4      ar
     5    3   12       1
     6    4    5      ar
     7    5    6      ar
     8    5   13       1
     9    6    7       1
    10    7    8       1
    11    7   11       1
    12    8    9       2
    13    9   10       1
    14   10   11       2
    15   13   14       1
    16   14   15       1
    17   15   16      am
    18   15   17       2
    19   16   18       1
    20   18   19       1
    21   18   28       1
    22   19   20       2
    23   19   21      am
    24   21   22       1
    25   22   23      ar
    26   22   27      ar
    27   23   24      ar
    28   24   25      ar
    29   25   26      ar
    30   25   35       1
    31   26   27      ar
    32   28   29       1
    33   29   30      ar
    34   29   34      ar
    35   30   31      ar
    36   31   32      ar
    37   32   33      ar
    38   33   34      ar
    39   35   36       1
    40   36   37      ar
    41   36   38      ar
    42    1   39       1
    43    2   40       1
    44    4   41       1
    45    8   42       1
    46   13   43       1
    47   13   44       1
    48   14   45       1
    49   14   46       1
    50   16   47       1
    51   18   48       1
    52   21   49       1
    53   23   50       1
    54   24   51       1
    55   26   52       1
    56   27   53       1
    57   28   54       1
    58   28   55       1
    59   30   56       1
    60   31   57       1
    61   32   58       1
    62   33   59       1
    63   34   60       1
    64   35   61       1
    65   35   62       1
@<TRIPOS>SUBSTRUCTURE
     1 O58626      1 GROUP             4 A     O58     0 **** O58 A 626
