@<TRIPOS>MOLECULE
5a1j_LCM_1_ligand
   42    43     1     0     0
SMALL
NO_CHARGES


@<TRIPOS>ATOM
     1 C1          -9.4400     7.2480     2.8290 C.ar         1 LCM1312   0.0000
     2 C2          -9.3670     7.1370     1.4400 C.ar         1 LCM1312   0.0000
     3 C3         -10.4260     7.6780     0.6500 C.ar         1 LCM1312   0.0000
     4 C4         -11.6370     8.2180     1.2950 C.ar         1 LCM1312   0.0000
     5 C5         -11.7010     8.2400     2.7140 C.ar         1 LCM1312   0.0000
     6 C6         -10.5990     7.7800     3.4280 C.ar         1 LCM1312   0.0000
     7 C7         -12.6560     8.8210     0.3960 C.2          1 LCM1312   0.0000
     8 N8         -12.1950     9.0240    -0.8620 N.am         1 LCM1312   0.0000
     9 O9         -13.6420     9.3850     0.8780 O.2          1 LCM1312   0.0000
    10 C10        -12.4480    10.1870    -1.6880 C.3          1 LCM1312   0.0000
    11 C11        -11.5040    11.2760    -1.0590 C.3          1 LCM1312   0.0000
    12 C12        -11.0980    12.3790    -2.0250 C.3          1 LCM1312   0.0000
    13 C13         -9.5980    12.6470    -2.1440 C.3          1 LCM1312   0.0000
    14 N14         -8.7150    11.4730    -2.0730 N.am         1 LCM1312   0.0000
    15 C15         -7.3690    11.5690    -2.3100 C.2          1 LCM1312   0.0000
    16 C16         -6.3960    10.4060    -2.1960 C.ar         1 LCM1312   0.0000
    17 O17         -6.9120    12.6430    -2.6510 O.2          1 LCM1312   0.0000
    18 C18         -6.9110     9.0300    -1.8820 C.ar         1 LCM1312   0.0000
    19 C19         -5.9520     7.9440    -1.7460 C.ar         1 LCM1312   0.0000
    20 C20         -4.5810     8.2220    -1.9330 C.ar         1 LCM1312   0.0000
    21 C21         -4.1210     9.4770    -2.2480 C.ar         1 LCM1312   0.0000
    22 C22         -5.0070    10.5570    -2.3950 C.ar         1 LCM1312   0.0000
    23 O23         -8.2360     8.7440    -1.5280 O.3          1 LCM1312  -1.0000
    24 O24         -6.5890     6.7770    -1.4750 O.3          1 LCM1312  -1.0000
    25 O25        -10.3330     7.5670    -0.6750 O.3          1 LCM1312  -1.0000
    26 O26         -8.2560     6.7430     0.8680 O.3          1 LCM1312  -1.0000
    27 H1          -8.6726     6.9511     3.3972 H            1 LCM1312   0.0000
    28 H2         -12.5154     8.5767     3.1865 H            1 LCM1312   0.0000
    29 H3         -10.6315     7.8300     4.4262 H            1 LCM1312   0.0000
    30 H4         -11.6264     8.3028    -1.2576 H            1 LCM1312   0.0000
    31 H5         -13.4066    10.4662    -1.6324 H            1 LCM1312   0.0000
    32 H6         -12.2072    10.0099    -2.6423 H            1 LCM1312   0.0000
    33 H7         -10.6743    10.8223    -0.7337 H            1 LCM1312   0.0000
    34 H8         -11.9797    11.6952    -0.2857 H            1 LCM1312   0.0000
    35 H9         -11.5372    13.2257    -1.7246 H            1 LCM1312   0.0000
    36 H10        -11.4374    12.1312    -2.9324 H            1 LCM1312   0.0000
    37 H11         -9.3401    13.2666    -1.4027 H            1 LCM1312   0.0000
    38 H12         -9.4381    13.0949    -3.0236 H            1 LCM1312   0.0000
    39 H13         -9.1072    10.5816    -1.8459 H            1 LCM1312   0.0000
    40 H14         -3.9205     7.4780    -1.8325 H            1 LCM1312   0.0000
    41 H15         -3.1401     9.6243    -2.3747 H            1 LCM1312   0.0000
    42 H16         -4.6448    11.4545    -2.6467 H            1 LCM1312   0.0000
@<TRIPOS>BOND
     1    1    2      ar
     2    1    6      ar
     3    2    3      ar
     4    2   26       1
     5    3    4      ar
     6    3   25       1
     7    4    5      ar
     8    4    7       1
     9    5    6      ar
    10    7    8      am
    11    7    9       2
    12    8   10       1
    13   10   11       1
    14   11   12       1
    15   12   13       1
    16   13   14       1
    17   14   15      am
    18   15   16       1
    19   15   17       2
    20   16   18      ar
    21   16   22      ar
    22   18   19      ar
    23   18   23       1
    24   19   20      ar
    25   19   24       1
    26   20   21      ar
    27   21   22      ar
    28    1   27       1
    29    5   28       1
    30    6   29       1
    31    8   30       1
    32   10   31       1
    33   10   32       1
    34   11   33       1
    35   11   34       1
    36   12   35       1
    37   12   36       1
    38   13   37       1
    39   13   38       1
    40   14   39       1
    41   20   40       1
    42   21   41       1
    43   22   42       1
@<TRIPOS>SUBSTRUCTURE
     1 LCM1312     1 GROUP             4 A     LCM     0 **** LCM A1312
