@<TRIPOS>MOLECULE
1y8q_ATP_2_ligand
   43    45     1     0     0
SMALL
NO_CHARGES


@<TRIPOS>ATOM
     1 PG          24.0170    -2.5440     7.6050 P.3          1 ATP801   0.0000
     2 O1G         24.2380    -1.1430     7.1300 O.co2        1 ATP801   0.0000
     3 O2G         24.8640    -3.5310     6.7960 O.co2        1 ATP801  -1.0000
     4 O3G         24.3560    -2.6120     9.1070 O.co2        1 ATP801  -1.0000
     5 PB          21.7780    -4.3300     7.6090 P.3          1 ATP801   0.0000
     6 O1B         21.4350    -4.5620     9.0200 O.co2        1 ATP801   0.0000
     7 O2B         22.6130    -5.4190     6.9680 O.co2        1 ATP801  -1.0000
     8 O3B         22.4280    -2.8830     7.5070 O.3          1 ATP801   0.0000
     9 PA          19.8840    -4.5720     5.4360 P.3          1 ATP801   0.0000
    10 O1A         18.6360    -3.8230     5.2530 O.co2        1 ATP801   0.0000
    11 O2A         20.9410    -4.2740     4.4000 O.co2        1 ATP801  -1.0000
    12 O3A         20.3790    -4.1340     6.8690 O.3          1 ATP801   0.0000
    13 O5'         19.5360    -6.1380     5.5960 O.3          1 ATP801   0.0000
    14 C5'         20.3220    -7.1560     5.0290 C.3          1 ATP801   0.0000
    15 C4'         20.0300    -8.4370     5.8080 C.3          1 ATP801   0.0000
    16 O4'         20.5270    -9.5680     5.1180 O.3          1 ATP801   0.0000
    17 C3'         20.7120    -8.4190     7.1910 C.3          1 ATP801   0.0000
    18 O3'         19.7040    -8.4630     8.1940 O.3          1 ATP801   0.0000
    19 C2'         21.6080    -9.6410     7.1650 C.3          1 ATP801   0.0000
    20 O2'         21.8020   -10.3490     8.3530 O.3          1 ATP801   0.0000
    21 C1'         20.9590   -10.4890     6.1110 C.3          1 ATP801   0.0000
    22 N9          21.8210   -11.4670     5.4030 N.pl3        1 ATP801   0.0000
    23 C8          22.9160   -11.1360     4.6540 C.2          1 ATP801   0.0000
    24 N7          23.4200   -12.2690     4.2100 N.2          1 ATP801   0.0000
    25 C5          22.7050   -13.3390     4.6370 C.ar         1 ATP801   0.0000
    26 C6          22.7550   -14.7430     4.4970 C.ar         1 ATP801   0.0000
    27 N6          23.6710   -15.4140     3.8470 N.pl3        1 ATP801   0.0000
    28 N1          21.7940   -15.5270     5.1130 N.ar         1 ATP801   0.0000
    29 C2          20.7890   -14.9640     5.8570 C.ar         1 ATP801   0.0000
    30 N3          20.7270   -13.5820     6.0080 N.ar         1 ATP801   0.0000
    31 C4          21.6680   -12.8060     5.3990 C.ar         1 ATP801   0.0000
    32 H5'1        21.2915    -6.9226     5.1040 H            1 ATP801   0.0000
    33 H5'2        20.0821    -7.2782     4.0659 H            1 ATP801   0.0000
    34 H4'         19.0418    -8.5319     5.9286 H            1 ATP801   0.0000
    35 H3'         21.2627    -7.5905     7.2925 H            1 ATP801   0.0000
    36 H5          19.5036    -9.4154     8.4236 H            1 ATP801   0.0000
    37 H2'         22.5048    -9.3586     6.8244 H            1 ATP801   0.0000
    38 H7          20.9218   -10.6844     8.6887 H            1 ATP801   0.0000
    39 H1'         20.1668   -10.9595     6.4996 H            1 ATP801   0.0000
    40 H9          23.2652   -10.2156     4.4781 H            1 ATP801   0.0000
    41 H10         23.6226   -16.4118     3.8024 H            1 ATP801   0.0000
    42 H11         24.4195   -14.9290     3.3948 H            1 ATP801   0.0000
    43 H12         20.1012   -15.5461     6.2907 H            1 ATP801   0.0000
@<TRIPOS>BOND
     1    1    2      ar
     2    1    3      ar
     3    1    4      ar
     4    1    8       1
     5    5    6      ar
     6    5    7      ar
     7    5    8       1
     8    5   12       1
     9    9   10      ar
    10    9   11      ar
    11    9   12       1
    12    9   13       1
    13   13   14       1
    14   14   15       1
    15   15   16       1
    16   15   17       1
    17   16   21       1
    18   17   18       1
    19   17   19       1
    20   19   20       1
    21   19   21       1
    22   21   22       1
    23   22   23       1
    24   22   31       1
    25   23   24       2
    26   24   25       1
    27   25   26      ar
    28   25   31      ar
    29   26   27       1
    30   26   28      ar
    31   28   29      ar
    32   29   30      ar
    33   30   31      ar
    34   29   43       1
    35   27   42       1
    36   27   41       1
    37   23   40       1
    38   14   32       1
    39   14   33       1
    40   15   34       1
    41   17   35       1
    42   18   36       1
    43   19   37       1
    44   20   38       1
    45   21   39       1
@<TRIPOS>SUBSTRUCTURE
     1 ATP801      1 GROUP             4 D     ATP     0 **** ATP D 801
