@<TRIPOS>MOLECULE
3if9_FAD_3_ligand
   84    89     1     0     0
SMALL
NO_CHARGES


@<TRIPOS>ATOM
     1 PA          10.8920   183.7320   158.1530 P.3          1 FAD371   0.0000
     2 O1A          9.5900   183.8410   157.4250 O.co2        1 FAD371   0.0000
     3 O2A         11.4230   182.3640   158.4800 O.co2        1 FAD371  -1.0000
     4 O5B         10.8200   184.5670   159.5200 O.3          1 FAD371   0.0000
     5 C5B         10.1550   185.8300   159.5980 C.3          1 FAD371   0.0000
     6 C4B          9.4270   185.8610   160.9320 C.3          1 FAD371   0.0000
     7 O4B          8.9420   187.1710   161.2490 O.3          1 FAD371   0.0000
     8 C3B          8.2010   184.9490   161.0150 C.3          1 FAD371   0.0000
     9 O3B          8.4960   183.9200   161.9720 O.3          1 FAD371   0.0000
    10 C2B          7.0790   185.8660   161.5090 C.3          1 FAD371   0.0000
    11 O2B          6.1780   185.1580   162.3570 O.3          1 FAD371   0.0000
    12 C1B          7.9650   186.8660   162.2360 C.3          1 FAD371   0.0000
    13 N9A          7.4290   188.0420   162.9820 N.pl3        1 FAD371   0.0000
    14 C8A          7.7100   188.3100   164.2940 C.2          1 FAD371   0.0000
    15 N7A          7.0910   189.4480   164.7080 N.2          1 FAD371   0.0000
    16 C5A          6.4280   189.8830   163.6190 C.ar         1 FAD371   0.0000
    17 C6A          5.6310   190.9850   163.4170 C.ar         1 FAD371   0.0000
    18 N6A          5.3940   191.8500   164.4040 N.pl3        1 FAD371   0.0000
    19 N1A          5.0960   191.1570   162.1970 N.ar         1 FAD371   0.0000
    20 C2A          5.3350   190.2640   161.1980 C.ar         1 FAD371   0.0000
    21 N3A          6.1100   189.1870   161.3560 N.ar         1 FAD371   0.0000
    22 C4A          6.6510   188.9980   162.5480 C.ar         1 FAD371   0.0000
    23 N1          17.0540   179.2670   151.5620 N.2          1 FAD371   0.0000
    24 C2          18.3000   178.7400   151.5190 C.2          1 FAD371   0.0000
    25 O2          19.2760   179.4330   151.8770 O.2          1 FAD371   0.0000
    26 N3          18.5150   177.4750   151.1120 N.pl3        1 FAD371   0.0000
    27 C4          17.4660   176.7170   150.7370 C.2          1 FAD371   0.0000
    28 O4          17.6690   175.5420   150.3640 O.2          1 FAD371   0.0000
    29 C4X         16.1700   177.2410   150.7660 C.2          1 FAD371   0.0000
    30 N5          15.1170   176.4680   150.3760 N.2          1 FAD371   0.0000
    31 C5X         13.8810   176.9840   150.4110 C.ar         1 FAD371   0.0000
    32 C6          12.8310   176.1680   150.0100 C.ar         1 FAD371   0.0000
    33 C7          11.5300   176.6730   150.0250 C.ar         1 FAD371   0.0000
    34 C7M         10.3990   175.7850   149.5860 C.3          1 FAD371   0.0000
    35 C8          11.2790   177.9750   150.4580 C.ar         1 FAD371   0.0000
    36 C8M          9.8650   178.5310   150.4960 C.3          1 FAD371   0.0000
    37 C9          12.3500   178.7880   150.8540 C.ar         1 FAD371   0.0000
    38 C9A         13.6720   178.3160   150.8410 C.ar         1 FAD371   0.0000
    39 N10         14.7300   179.1080   151.2200 N.pl3        1 FAD371   0.0000
    40 C10         15.9710   178.5570   151.1860 C.2          1 FAD371   0.0000
    41 C1'         14.5660   180.5150   151.7370 C.3          1 FAD371   0.0000
    42 C2'         14.4080   180.4060   153.2790 C.3          1 FAD371   0.0000
    43 O2'         13.1360   179.8300   153.5130 O.3          1 FAD371   0.0000
    44 C3'         14.5710   181.5600   154.3090 C.3          1 FAD371   0.0000
    45 O3'         13.7720   181.3840   155.5000 O.3          1 FAD371   0.0000
    46 C4'         14.2020   182.9470   153.8760 C.3          1 FAD371   0.0000
    47 O4'         14.9920   183.1820   152.6850 O.3          1 FAD371   0.0000
    48 C5'         14.4530   183.9640   155.0230 C.3          1 FAD371   0.0000
    49 O5'         13.9060   183.6890   156.3360 O.3          1 FAD371   0.0000
    50 P           13.4680   184.8740   157.4010 P.3          1 FAD371   0.0000
    51 O1P         13.9480   184.6570   158.7990 O.co2        1 FAD371   0.0000
    52 O2P         13.7140   186.2430   156.8200 O.co2        1 FAD371  -1.0000
    53 O3P         11.8700   184.6880   157.3100 O.3          1 FAD371   0.0000
    54 H5B1         9.5013   185.9219   158.8468 H            1 FAD371   0.0000
    55 H5B2        10.8220   186.5737   159.5524 H            1 FAD371   0.0000
    56 H4B         10.0707   185.5849   161.6457 H            1 FAD371   0.0000
    57 H3B          7.9806   184.5583   160.1213 H            1 FAD371   0.0000
    58 H5           8.6839   184.3362   162.8617 H            1 FAD371   0.0000
    59 H2B          6.5975   186.2953   160.7449 H            1 FAD371   0.0000
    60 H7           6.6748   184.8033   163.1491 H            1 FAD371   0.0000
    61 H1B          8.4525   186.3264   162.9224 H            1 FAD371   0.0000
    62 H8A          8.2949   187.7425   164.8735 H            1 FAD371   0.0000
    63 H6A1         4.8121   192.6469   164.2415 H            1 FAD371   0.0000
    64 H6A2         5.7982   191.7017   165.3066 H            1 FAD371   0.0000
    65 H2A          4.9116   190.4209   160.3058 H            1 FAD371   0.0000
    66 H13         19.4426   177.1021   151.0882 H            1 FAD371   0.0000
    67 H14         13.0053   175.2289   149.7138 H            1 FAD371   0.0000
    68 H7M1         9.5363   176.2864   149.6527 H            1 FAD371   0.0000
    69 H7M2        10.5469   175.5006   148.6388 H            1 FAD371   0.0000
    70 H7M3        10.3615   174.9774   150.1746 H            1 FAD371   0.0000
    71 H8M1         9.8860   179.4727   150.8319 H            1 FAD371   0.0000
    72 H8M2         9.4754   178.5142   149.5752 H            1 FAD371   0.0000
    73 H8M3         9.3033   177.9720   151.1059 H            1 FAD371   0.0000
    74 H21         12.1683   179.7250   151.1524 H            1 FAD371   0.0000
    75 H1'1        13.7532   180.9374   151.3359 H            1 FAD371   0.0000
    76 H1'2        15.3720   181.0619   151.5106 H            1 FAD371   0.0000
    77 H2'         15.0669   179.7086   153.5609 H            1 FAD371   0.0000
    78 H25         12.9873   179.7390   154.4977 H            1 FAD371   0.0000
    79 H3'         15.5304   181.5783   154.5906 H            1 FAD371   0.0000
    80 H27         13.5209   182.2792   155.8682 H            1 FAD371   0.0000
    81 H4'         13.2324   182.9645   153.6320 H            1 FAD371   0.0000
    82 H29         14.4780   182.8853   151.8802 H            1 FAD371   0.0000
    83 H5'1        14.0750   184.8407   154.7255 H            1 FAD371   0.0000
    84 H5'2        15.4438   184.0472   155.1296 H            1 FAD371   0.0000
@<TRIPOS>BOND
     1    1    2      ar
     2    1    3      ar
     3    1    4       1
     4    1   53       1
     5    4    5       1
     6    5    6       1
     7    6    7       1
     8    6    8       1
     9    7   12       1
    10    8    9       1
    11    8   10       1
    12   10   11       1
    13   10   12       1
    14   12   13       1
    15   13   14       1
    16   13   22       1
    17   14   15       2
    18   15   16       1
    19   16   17      ar
    20   16   22      ar
    21   17   18       1
    22   17   19      ar
    23   19   20      ar
    24   20   21      ar
    25   21   22      ar
    26   23   24       1
    27   23   40       2
    28   24   25       2
    29   24   26       1
    30   26   27       1
    31   27   28       2
    32   27   29       1
    33   29   30       2
    34   29   40       1
    35   30   31       1
    36   31   32      ar
    37   31   38      ar
    38   32   33      ar
    39   33   34       1
    40   33   35      ar
    41   35   36       1
    42   35   37      ar
    43   37   38      ar
    44   38   39       1
    45   39   40       1
    46   39   41       1
    47   41   42       1
    48   42   43       1
    49   42   44       1
    50   44   45       1
    51   44   46       1
    52   46   47       1
    53   46   48       1
    54   48   49       1
    55   49   50       1
    56   50   51      ar
    57   50   52      ar
    58   50   53       1
    59   48   84       1
    60    5   54       1
    61    5   55       1
    62    6   56       1
    63    8   57       1
    64    9   58       1
    65   10   59       1
    66   11   60       1
    67   12   61       1
    68   14   62       1
    69   18   63       1
    70   18   64       1
    71   20   65       1
    72   26   66       1
    73   32   67       1
    74   34   68       1
    75   34   69       1
    76   34   70       1
    77   36   71       1
    78   36   72       1
    79   36   73       1
    80   37   74       1
    81   41   75       1
    82   41   76       1
    83   42   77       1
    84   43   78       1
    85   44   79       1
    86   45   80       1
    87   46   81       1
    88   47   82       1
    89   48   83       1
@<TRIPOS>SUBSTRUCTURE
     1 FAD371      1 GROUP             4 C     FAD     0 **** FAD C 371
