@<TRIPOS>MOLECULE
3geg_NAD_2_ligand
   70    74     1     0     0
SMALL
NO_CHARGES


@<TRIPOS>ATOM
     1 PA          42.1090    64.1110    25.3070 P.3          1 NAD248   0.0000
     2 O1A         42.1250    63.0780    24.2440 O.co2        1 NAD248   0.0000
     3 O2A         40.7970    64.1780    25.9910 O.co2        1 NAD248  -1.0000
     4 O5B         42.4650    65.5490    24.6760 O.3          1 NAD248   0.0000
     5 C5B         43.7050    65.8010    24.0610 C.3          1 NAD248   0.0000
     6 C4B         43.4410    66.8120    22.9580 C.3          1 NAD248   0.0000
     7 O4B         44.6120    67.0280    22.1940 O.3          1 NAD248   0.0000
     8 C3B         42.3780    66.2640    22.0220 C.3          1 NAD248   0.0000
     9 O3B         41.4150    67.2670    21.7850 O.3          1 NAD248   0.0000
    10 C2B         43.1310    65.9270    20.7510 C.3          1 NAD248   0.0000
    11 O2B         42.3410    66.1620    19.6090 O.3          1 NAD248   0.0000
    12 C1B         44.3350    66.8550    20.8180 C.3          1 NAD248   0.0000
    13 N9A         45.5050    66.2920    20.1240 N.pl3        1 NAD248   0.0000
    14 C8A         46.0070    65.0240    20.2630 C.2          1 NAD248   0.0000
    15 N7A         47.0860    64.9050    19.4580 N.2          1 NAD248   0.0000
    16 C5A         47.2730    66.0730    18.8060 C.ar         1 NAD248   0.0000
    17 C6A         48.2150    66.4850    17.8720 C.ar         1 NAD248   0.0000
    18 N6A         49.1360    65.6280    17.4460 N.pl3        1 NAD248   0.0000
    19 N1A         48.1620    67.7720    17.3640 N.ar         1 NAD248   0.0000
    20 C2A         47.1700    68.6330    17.7860 C.ar         1 NAD248   0.0000
    21 N3A         46.2350    68.2180    18.7160 N.ar         1 NAD248   0.0000
    22 C4A         46.2860    66.9580    19.2170 C.ar         1 NAD248   0.0000
    23 O3          43.3340    63.8050    26.3110 O.3          1 NAD248   0.0000
    24 PN          43.5600    64.5220    27.7400 P.3          1 NAD248   0.0000
    25 O1N         43.3860    63.5070    28.8060 O.co2        1 NAD248   0.0000
    26 O2N         42.8260    65.8050    27.8300 O.co2        1 NAD248  -1.0000
    27 O5D         45.1370    64.8300    27.6340 O.3          1 NAD248   0.0000
    28 C5D         45.6640    66.1300    27.7420 C.3          1 NAD248   0.0000
    29 C4D         47.0110    66.0060    28.4420 C.3          1 NAD248   0.0000
    30 O4D         46.8310    65.4200    29.7210 O.3          1 NAD248   0.0000
    31 C3D         47.9550    65.0910    27.6750 C.3          1 NAD248   0.0000
    32 O3D         49.2370    65.6790    27.6170 O.3          1 NAD248   0.0000
    33 C2D         48.0120    63.8390    28.5280 C.3          1 NAD248   0.0000
    34 O2D         49.2450    63.1760    28.3870 O.3          1 NAD248   0.0000
    35 C1D         47.8010    64.4070    29.9240 C.3          1 NAD248   0.0000
    36 N1N         47.3380    63.3710    30.8660 N.ar         1 NAD248   1.0000
    37 C2N         46.0160    63.0150    30.9420 C.ar         1 NAD248   0.0000
    38 C3N         45.6080    62.0350    31.8470 C.ar         1 NAD248   0.0000
    39 C7N         44.2000    61.5120    31.8280 C.2          1 NAD248   0.0000
    40 O7N         43.8460    60.4360    32.6750 O.2          1 NAD248   0.0000
    41 N7N         43.3130    62.0810    31.0130 N.am         1 NAD248   0.0000
    42 C4N         46.5400    61.4400    32.6870 C.ar         1 NAD248   0.0000
    43 C5N         47.8720    61.8220    32.6110 C.ar         1 NAD248   0.0000
    44 C6N         48.2570    62.7940    31.6950 C.ar         1 NAD248   0.0000
    45 H5B1        44.0769    64.9570    23.6745 H            1 NAD248   0.0000
    46 H5B2        44.3508    66.1759    24.7261 H            1 NAD248   0.0000
    47 H4B         43.1309    67.6755    23.3558 H            1 NAD248   0.0000
    48 H3B         41.9513    65.4466    22.4091 H            1 NAD248   0.0000
    49 H5          41.8565    68.0608    21.3666 H            1 NAD248   0.0000
    50 H2B         43.4306    64.9731    20.7715 H            1 NAD248   0.0000
    51 H7          42.4783    67.1019    19.2964 H            1 NAD248   0.0000
    52 H1B         44.0989    67.7377    20.4117 H            1 NAD248   0.0000
    53 H8A         45.6382    64.3098    20.8579 H            1 NAD248   0.0000
    54 H6A1        49.8167    65.9189    16.7737 H            1 NAD248   0.0000
    55 H6A2        49.1487    64.6919    17.7976 H            1 NAD248   0.0000
    56 H2A         47.1271    69.5616    17.4174 H            1 NAD248   0.0000
    57 H5D1        45.0490    66.7066    28.2799 H            1 NAD248   0.0000
    58 H5D2        45.7846    66.5286    26.8328 H            1 NAD248   0.0000
    59 H4D         47.4245    66.9111    28.5407 H            1 NAD248   0.0000
    60 H3D         47.6046    64.8918    26.7598 H            1 NAD248   0.0000
    61 H17         49.1476    66.6750    27.6257 H            1 NAD248   0.0000
    62 H2D         47.2605    63.2242    28.2887 H            1 NAD248   0.0000
    63 H19         49.1128    62.1940    28.5218 H            1 NAD248   0.0000
    64 H1D         48.6517    64.8134    30.2574 H            1 NAD248   0.0000
    65 H2N         45.3441    63.4581    30.3485 H            1 NAD248   0.0000
    66 H7N1        42.3711    61.7461    30.9870 H            1 NAD248   0.0000
    67 H7N2        43.5891    62.8430    30.4273 H            1 NAD248   0.0000
    68 H4N         46.2533    60.7410    33.3422 H            1 NAD248   0.0000
    69 H5N         48.5511    61.4003    33.2119 H            1 NAD248   0.0000
    70 H6N         49.2158    63.0733    31.6426 H            1 NAD248   0.0000
@<TRIPOS>BOND
     1    1    2      ar
     2    1    3      ar
     3    1    4       1
     4    1   23       1
     5    4    5       1
     6    5    6       1
     7    6    7       1
     8    6    8       1
     9    7   12       1
    10    8    9       1
    11    8   10       1
    12   10   11       1
    13   10   12       1
    14   12   13       1
    15   13   14       1
    16   13   22       1
    17   14   15       2
    18   15   16       1
    19   16   17      ar
    20   16   22      ar
    21   17   18       1
    22   17   19      ar
    23   19   20      ar
    24   20   21      ar
    25   21   22      ar
    26   23   24       1
    27   24   25      ar
    28   24   26      ar
    29   24   27       1
    30   27   28       1
    31   28   29       1
    32   29   30       1
    33   29   31       1
    34   30   35       1
    35   31   32       1
    36   31   33       1
    37   33   34       1
    38   33   35       1
    39   35   36       1
    40   36   37      ar
    41   36   44      ar
    42   37   38      ar
    43   38   39       1
    44   38   42      ar
    45   39   40       2
    46   39   41      am
    47   42   43      ar
    48   43   44      ar
    49   44   70       1
    50    5   45       1
    51    5   46       1
    52    6   47       1
    53    8   48       1
    54    9   49       1
    55   10   50       1
    56   11   51       1
    57   12   52       1
    58   14   53       1
    59   18   54       1
    60   18   55       1
    61   20   56       1
    62   43   69       1
    63   28   57       1
    64   28   58       1
    65   29   59       1
    66   31   60       1
    67   32   61       1
    68   33   62       1
    69   34   63       1
    70   35   64       1
    71   37   65       1
    72   41   66       1
    73   41   67       1
    74   42   68       1
@<TRIPOS>SUBSTRUCTURE
     1 NAD248      1 GROUP             4 B     NAD     0 **** NAD B 248
