@<TRIPOS>MOLECULE
3bb3_GDP_1_ligand
   40    42     1     0     0
SMALL
NO_CHARGES


@<TRIPOS>ATOM
     1 PB          18.3360    44.8440    15.0770 P.3          1 GDP281   0.0000
     2 O1B         17.9440    45.2240    13.6660 O.co2        1 GDP281   0.0000
     3 O2B         19.1450    45.8970    15.8120 O.co2        1 GDP281  -1.0000
     4 O3B         18.9490    43.3420    15.0590 O.co2        1 GDP281  -1.0000
     5 O3A         16.9670    44.5120    15.8810 O.3          1 GDP281   0.0000
     6 PA          16.7620    43.6980    17.2650 P.3          1 GDP281   0.0000
     7 O1A         18.0940    43.6000    17.9300 O.co2        1 GDP281   0.0000
     8 O2A         15.9660    42.4660    16.9610 O.co2        1 GDP281  -1.0000
     9 O5'         15.7890    44.6020    18.1750 O.3          1 GDP281   0.0000
    10 C5'         15.8520    45.9850    18.5780 C.3          1 GDP281   0.0000
    11 C4'         14.8010    46.1820    19.7060 C.3          1 GDP281   0.0000
    12 O4'         13.4660    46.2250    19.1680 O.3          1 GDP281   0.0000
    13 C3'         14.7310    45.0540    20.7530 C.3          1 GDP281   0.0000
    14 O3'         14.7360    45.5530    22.1060 O.3          1 GDP281   0.0000
    15 C2'         13.4980    44.2120    20.3600 C.3          1 GDP281   0.0000
    16 O2'         12.7890    43.4950    21.3750 O.3          1 GDP281   0.0000
    17 C1'         12.5850    45.1970    19.6840 C.3          1 GDP281   0.0000
    18 N9          11.7990    44.5640    18.5790 N.pl3        1 GDP281   0.0000
    19 C8          12.2810    43.9200    17.4790 C.2          1 GDP281   0.0000
    20 N7          11.2660    43.4990    16.6950 N.2          1 GDP281   0.0000
    21 C5          10.1250    43.9070    17.3180 C.2          1 GDP281   0.0000
    22 C6           8.6620    43.7800    17.0070 C.2          1 GDP281   0.0000
    23 O6           8.2170    43.2200    15.9760 O.2          1 GDP281   0.0000
    24 N1           7.7910    44.3060    17.9020 N.pl3        1 GDP281   0.0000
    25 C2           8.1980    44.9340    19.0270 C.2          1 GDP281   0.0000
    26 N2           7.2270    45.4030    19.8130 N.pl3        1 GDP281   0.0000
    27 N3           9.5120    45.0870    19.3380 N.2          1 GDP281   0.0000
    28 C4          10.4680    44.5770    18.5040 C.2          1 GDP281   0.0000
    29 H5'1        15.6375    46.5783    17.8021 H            1 GDP281   0.0000
    30 H5'2        16.7665    46.2011    18.9200 H            1 GDP281   0.0000
    31 H4'         14.9882    47.0456    20.1742 H            1 GDP281   0.0000
    32 H3'         15.5415    44.4799    20.6370 H            1 GDP281   0.0000
    33 H5          14.6894    44.7850    22.7447 H            1 GDP281   0.0000
    34 H2'         13.7915    43.5495    19.6708 H            1 GDP281   0.0000
    35 H7          12.0225    43.0032    20.9620 H            1 GDP281   0.0000
    36 H1'         11.9609    45.5945    20.3566 H            1 GDP281   0.0000
    37 H9          13.2509    43.7790    17.2804 H            1 GDP281   0.0000
    38 H10          6.8103    44.2264    17.7232 H            1 GDP281   0.0000
    39 H11          7.4569    45.8788    20.6620 H            1 GDP281   0.0000
    40 H12          6.2694    45.2787    19.5531 H            1 GDP281   0.0000
@<TRIPOS>BOND
     1    1    2      ar
     2    1    3      ar
     3    1    4      ar
     4    1    5       1
     5    5    6       1
     6    6    7      ar
     7    6    8      ar
     8    6    9       1
     9    9   10       1
    10   10   11       1
    11   11   12       1
    12   11   13       1
    13   12   17       1
    14   13   14       1
    15   13   15       1
    16   15   16       1
    17   15   17       1
    18   17   18       1
    19   18   19       1
    20   18   28       1
    21   19   20       2
    22   20   21       1
    23   21   22       1
    24   21   28       2
    25   22   23       2
    26   22   24       1
    27   24   25       1
    28   25   26       1
    29   25   27       2
    30   27   28       1
    31   26   40       1
    32   26   39       1
    33   24   38       1
    34   10   29       1
    35   10   30       1
    36   11   31       1
    37   13   32       1
    38   14   33       1
    39   15   34       1
    40   16   35       1
    41   17   36       1
    42   19   37       1
@<TRIPOS>SUBSTRUCTURE
     1 GDP281      1 GROUP             4 A     GDP     0 **** GDP A 281
