@<TRIPOS>MOLECULE
2e5a_LAQ_1_ligand
   59    62     1     0     0
SMALL
NO_CHARGES


@<TRIPOS>ATOM
     1 O2P         38.8670    23.9390     6.6210 O.co2        1 LAQ2001   0.0000
     2 P           39.2100    25.2980     6.0680 P.3          1 LAQ2001   0.0000
     3 O1P         38.2780    25.9880     5.1190 O.co2        1 LAQ2001  -1.0000
     4 O3P         39.4280    26.2060     7.3790 O.3          1 LAQ2001   0.0000
     5 C10         39.7500    27.6180     7.3720 C.2          1 LAQ2001   0.0000
     6 C11         39.5100    28.3570     8.6740 C.3          1 LAQ2001   0.0000
     7 C12         40.1700    29.7290     8.6980 C.3          1 LAQ2001   0.0000
     8 C13         40.3060    30.2240    10.1290 C.3          1 LAQ2001   0.0000
     9 C14         40.9470    31.6040    10.1670 C.3          1 LAQ2001   0.0000
    10 C15         41.1670    32.0980    11.5970 C.3          1 LAQ2001   0.0000
    11 S15         42.3180    31.1450    12.5350 S.3          1 LAQ2001   0.0000
    12 S17         42.4720    32.5560    13.9770 S.3          1 LAQ2001   0.0000
    13 C17         42.2220    33.9770    12.9670 C.3          1 LAQ2001   0.0000
    14 C16         41.7530    33.5140    11.5820 C.3          1 LAQ2001   0.0000
    15 O10         40.2000    28.1480     6.3570 O.2          1 LAQ2001   0.0000
    16 O5'         40.6780    25.3060     5.4280 O.3          1 LAQ2001   0.0000
    17 C5'         41.7890    24.6480     6.0360 C.3          1 LAQ2001   0.0000
    18 C4'         42.8350    24.4190     4.9470 C.3          1 LAQ2001   0.0000
    19 C3'         44.0310    23.5920     5.3870 C.3          1 LAQ2001   0.0000
    20 O3'         43.7540    22.1950     5.3080 O.3          1 LAQ2001   0.0000
    21 C2'         45.1010    24.0380     4.4070 C.3          1 LAQ2001   0.0000
    22 O2'         44.8000    23.4970     3.1210 O.3          1 LAQ2001   0.0000
    23 C1'         44.8050    25.5170     4.2710 C.3          1 LAQ2001   0.0000
    24 O4'         43.4050    25.6660     4.5400 O.3          1 LAQ2001   0.0000
    25 N9          45.5250    26.3750     5.2430 N.pl3        1 LAQ2001   0.0000
    26 C8          46.2350    26.0070     6.3300 C.2          1 LAQ2001   0.0000
    27 N7          46.7250    27.0910     6.9780 N.2          1 LAQ2001   0.0000
    28 C5          46.3080    28.1800     6.3040 C.ar         1 LAQ2001   0.0000
    29 C6          46.4560    29.6510     6.4230 C.ar         1 LAQ2001   0.0000
    30 N6          47.1580    30.2170     7.4350 N.pl3        1 LAQ2001   0.0000
    31 N1          45.8610    30.4210     5.4830 N.ar         1 LAQ2001   0.0000
    32 C2          45.1480    29.9120     4.4660 C.ar         1 LAQ2001   0.0000
    33 N3          44.9800    28.5880     4.3010 N.ar         1 LAQ2001   0.0000
    34 C4          45.5250    27.6960     5.1640 C.ar         1 LAQ2001   0.0000
    35 H1          39.8796    27.8105     9.4254 H            1 LAQ2001   0.0000
    36 H2          38.5247    28.4732     8.7995 H            1 LAQ2001   0.0000
    37 H3          39.6099    30.3737     8.1777 H            1 LAQ2001   0.0000
    38 H4          41.0777    29.6658     8.2831 H            1 LAQ2001   0.0000
    39 H5          40.8759    29.5839    10.6442 H            1 LAQ2001   0.0000
    40 H6          39.3986    30.2728    10.5463 H            1 LAQ2001   0.0000
    41 H7          40.3499    32.2499     9.6912 H            1 LAQ2001   0.0000
    42 H8          41.8308    31.5617     9.7011 H            1 LAQ2001   0.0000
    43 H9          40.2892    32.1131    12.0757 H            1 LAQ2001   0.0000
    44 H10         43.0794    34.4843    12.8805 H            1 LAQ2001   0.0000
    45 H11         41.5265    34.5656    13.3792 H            1 LAQ2001   0.0000
    46 H12         41.0515    34.1468    11.2540 H            1 LAQ2001   0.0000
    47 H13         42.5343    33.5300    10.9581 H            1 LAQ2001   0.0000
    48 H5'1        41.4987    23.7719     6.4209 H            1 LAQ2001   0.0000
    49 H5'2        42.1705    25.2208     6.7615 H            1 LAQ2001   0.0000
    50 H4'         42.4018    23.9808     4.1594 H            1 LAQ2001   0.0000
    51 H3'         44.2948    23.8381     6.3197 H            1 LAQ2001   0.0000
    52 H18         43.3716    21.8813     6.1771 H            1 LAQ2001   0.0000
    53 H2'         46.0321    23.8430     4.7152 H            1 LAQ2001   0.0000
    54 H20         45.6497    23.3452     2.6160 H            1 LAQ2001   0.0000
    55 H1'         45.0053    25.8187     3.3389 H            1 LAQ2001   0.0000
    56 H22         46.3800    25.0606     6.6186 H            1 LAQ2001   0.0000
    57 H23         47.2414    31.2120     7.4904 H            1 LAQ2001   0.0000
    58 H24         47.5925    29.6396     8.1262 H            1 LAQ2001   0.0000
    59 H25         44.7278    30.5381     3.8092 H            1 LAQ2001   0.0000
@<TRIPOS>BOND
     1    1    2      ar
     2    2    3      ar
     3    2    4       1
     4    2   16       1
     5    4    5       1
     6    5    6       1
     7    5   15       2
     8    6    7       1
     9    7    8       1
    10    8    9       1
    11    9   10       1
    12   10   11       1
    13   10   14       1
    14   11   12       1
    15   12   13       1
    16   13   14       1
    17   16   17       1
    18   17   18       1
    19   18   19       1
    20   18   24       1
    21   19   20       1
    22   19   21       1
    23   21   22       1
    24   21   23       1
    25   23   24       1
    26   23   25       1
    27   25   26       1
    28   25   34       1
    29   26   27       2
    30   27   28       1
    31   28   29      ar
    32   28   34      ar
    33   29   30       1
    34   29   31      ar
    35   31   32      ar
    36   32   33      ar
    37   33   34      ar
    38   32   59       1
    39    6   35       1
    40    6   36       1
    41    7   37       1
    42    7   38       1
    43    8   39       1
    44    8   40       1
    45    9   41       1
    46    9   42       1
    47   10   43       1
    48   13   44       1
    49   13   45       1
    50   14   46       1
    51   14   47       1
    52   17   48       1
    53   17   49       1
    54   18   50       1
    55   19   51       1
    56   20   52       1
    57   21   53       1
    58   22   54       1
    59   23   55       1
    60   26   56       1
    61   30   57       1
    62   30   58       1
@<TRIPOS>SUBSTRUCTURE
     1 LAQ2001     1 GROUP             4 A     LAQ     0 **** LAQ A2001
