@<TRIPOS>MOLECULE
1fnn_ADP_2_ligand
   39    41     1     0     0
SMALL
NO_CHARGES


@<TRIPOS>ATOM
     1 PB          55.5370    12.3070    -7.8120 P.3          1 ADP399   0.0000
     2 O1B         54.1800    11.6640    -7.7800 O.co2        1 ADP399   0.0000
     3 O2B         55.7430    12.7340    -9.1980 O.co2        1 ADP399  -1.0000
     4 O3B         56.5110    11.3630    -7.3340 O.co2        1 ADP399  -1.0000
     5 PA          55.0190    14.4720    -6.0740 P.3          1 ADP399   0.0000
     6 O1A         53.6760    14.8850    -6.6320 O.co2        1 ADP399   0.0000
     7 O2A         54.7290    13.7190    -4.8300 O.co2        1 ADP399  -1.0000
     8 O3A         55.7780    13.6640    -7.0960 O.3          1 ADP399   0.0000
     9 O5'         55.9040    15.7190    -5.5520 O.3          1 ADP399   0.0000
    10 C5'         57.0220    15.4000    -4.7060 C.3          1 ADP399   0.0000
    11 C4'         57.1300    16.5730    -3.7090 C.3          1 ADP399   0.0000
    12 O4'         57.3740    17.7690    -4.4650 O.3          1 ADP399   0.0000
    13 C3'         55.8540    16.8570    -2.9580 C.3          1 ADP399   0.0000
    14 O3'         56.1270    17.4000    -1.6700 O.3          1 ADP399   0.0000
    15 C2'         55.1500    17.7700    -3.9260 C.3          1 ADP399   0.0000
    16 O2'         54.1910    18.6210    -3.2090 O.3          1 ADP399   0.0000
    17 C1'         56.3340    18.6760    -4.2960 C.3          1 ADP399   0.0000
    18 N9          56.0860    19.2610    -5.5740 N.pl3        1 ADP399   0.0000
    19 C8          56.2280    18.6330    -6.7830 C.2          1 ADP399   0.0000
    20 N7          56.1450    19.4160    -7.8170 N.2          1 ADP399   0.0000
    21 C5          55.9340    20.6570    -7.2400 C.ar         1 ADP399   0.0000
    22 C6          55.7350    21.9280    -7.8030 C.ar         1 ADP399   0.0000
    23 N6          55.7100    22.1020    -9.1140 N.pl3        1 ADP399   0.0000
    24 N1          55.5270    22.9580    -6.9790 N.ar         1 ADP399   0.0000
    25 C2          55.5160    22.7450    -5.6770 C.ar         1 ADP399   0.0000
    26 N3          55.6880    21.6050    -5.0110 N.ar         1 ADP399   0.0000
    27 C4          55.8950    20.5790    -5.8800 C.ar         1 ADP399   0.0000
    28 H5'1        57.8593    15.3227    -5.2472 H            1 ADP399   0.0000
    29 H5'2        56.8590    14.5415    -4.2197 H            1 ADP399   0.0000
    30 H4'         57.8795    16.4120    -3.0669 H            1 ADP399   0.0000
    31 H3'         55.3310    16.0105    -2.8583 H            1 ADP399   0.0000
    32 H5          56.6363    18.2548    -1.7697 H            1 ADP399   0.0000
    33 H2'         54.7525    17.2920    -4.7093 H            1 ADP399   0.0000
    34 H7          53.4260    18.8435    -3.8133 H            1 ADP399   0.0000
    35 H1'         56.5301    19.3588    -3.5922 H            1 ADP399   0.0000
    36 H9          56.3835    17.6485    -6.8638 H            1 ADP399   0.0000
    37 H10         55.5669    23.0157    -9.4945 H            1 ADP399   0.0000
    38 H11         55.8342    21.3199    -9.7246 H            1 ADP399   0.0000
    39 H12         55.3560    23.5535    -5.1107 H            1 ADP399   0.0000
@<TRIPOS>BOND
     1    1    2      ar
     2    1    3      ar
     3    1    4      ar
     4    1    8       1
     5    5    6      ar
     6    5    7      ar
     7    5    8       1
     8    5    9       1
     9    9   10       1
    10   10   11       1
    11   11   12       1
    12   11   13       1
    13   12   17       1
    14   13   14       1
    15   13   15       1
    16   15   16       1
    17   15   17       1
    18   17   18       1
    19   18   19       1
    20   18   27       1
    21   19   20       2
    22   20   21       1
    23   21   22      ar
    24   21   27      ar
    25   22   23       1
    26   22   24      ar
    27   24   25      ar
    28   25   26      ar
    29   26   27      ar
    30   25   39       1
    31   23   38       1
    32   23   37       1
    33   10   28       1
    34   10   29       1
    35   11   30       1
    36   13   31       1
    37   14   32       1
    38   15   33       1
    39   16   34       1
    40   17   35       1
    41   19   36       1
@<TRIPOS>SUBSTRUCTURE
     1 ADP399      1 GROUP             4 B     ADP     0 **** ADP B 399
