@<TRIPOS>MOLECULE
1uhl_MEI_1_ligand
   46    45     1     0     0
SMALL
NO_CHARGES


@<TRIPOS>ATOM
     1 C1          49.3640    -7.4670    33.7720 C.3          1 MEI1001   0.0000
     2 O1          49.1440    -7.6620    32.3720 O.3          1 MEI1001   0.0000
     3 C2          48.7040    -8.9150    31.8970 C.3          1 MEI1001   0.0000
     4 C3          48.2120    -9.8630    33.0250 C.3          1 MEI1001   0.0000
     5 C4          49.9760    -9.3830    31.2070 C.3          1 MEI1001   0.0000
     6 C5          47.6140    -8.6580    30.8690 C.3          1 MEI1001   0.0000
     7 C6          48.1890    -8.5050    29.4690 C.3          1 MEI1001   0.0000
     8 C7          47.2100    -7.8390    28.5220 C.3          1 MEI1001   0.0000
     9 C8          46.5330    -8.8770    27.6200 C.3          1 MEI1001   0.0000
    10 C9          45.9970    -8.1530    26.3750 C.3          1 MEI1001   0.0000
    11 C10         45.5280    -9.7170    28.4400 C.3          1 MEI1001   0.0000
    12 C11         44.2100    -9.0120    28.4480 C.2          1 MEI1001   0.0000
    13 C12         43.6500    -8.3570    29.4540 C.2          1 MEI1001   0.0000
    14 C13         42.3970    -7.8370    28.9330 C.2          1 MEI1001   0.0000
    15 C14         42.1290    -8.3470    27.5660 C.3          1 MEI1001   0.0000
    16 C15         41.5530    -6.9650    29.5070 C.2          1 MEI1001   0.0000
    17 C16         40.2670    -6.5710    28.8170 C.2          1 MEI1001   0.0000
    18 O2          39.9990    -5.9020    27.7720 O.co2        1 MEI1001   0.0000
    19 O3          39.3290    -7.0200    29.4100 O.co2        1 MEI1001  -1.0000
    20 H1          49.6712    -6.5292    33.9337 H            1 MEI1001   0.0000
    21 H2          48.5116    -7.6289    34.2691 H            1 MEI1001   0.0000
    22 H3          50.0631    -8.1066    34.0918 H            1 MEI1001   0.0000
    23 H4          47.9150   -10.7303    32.6256 H            1 MEI1001   0.0000
    24 H5          48.9587   -10.0308    33.6687 H            1 MEI1001   0.0000
    25 H6          47.4456    -9.4381    33.5069 H            1 MEI1001   0.0000
    26 H7          49.8244   -10.2862    30.8055 H            1 MEI1001   0.0000
    27 H8          50.2221    -8.7349    30.4863 H            1 MEI1001   0.0000
    28 H9          50.7178    -9.4356    31.8755 H            1 MEI1001   0.0000
    29 H10         47.1284    -7.8188    31.1138 H            1 MEI1001   0.0000
    30 H11         46.9746    -9.4269    30.8749 H            1 MEI1001   0.0000
    31 H12         48.4169    -9.4112    29.1129 H            1 MEI1001   0.0000
    32 H13         49.0183    -7.9486    29.5197 H            1 MEI1001   0.0000
    33 H14         47.7015    -7.1804    27.9522 H            1 MEI1001   0.0000
    34 H15         46.5110    -7.3623    29.0551 H            1 MEI1001   0.0000
    35 H16         47.2484    -9.5021    27.3078 H            1 MEI1001   0.0000
    36 H17         45.5504    -8.8137    25.7716 H            1 MEI1001   0.0000
    37 H18         45.3362    -7.4560    26.6534 H            1 MEI1001   0.0000
    38 H19         46.7556    -7.7182    25.8898 H            1 MEI1001   0.0000
    39 H20         45.8608    -9.8194    29.3774 H            1 MEI1001   0.0000
    40 H21         45.4244   -10.6198    28.0226 H            1 MEI1001   0.0000
    41 H22         43.6902    -9.0378    27.5941 H            1 MEI1001   0.0000
    42 H23         44.0135    -8.2440    30.3787 H            1 MEI1001   0.0000
    43 H24         41.2627    -7.9732    27.2347 H            1 MEI1001   0.0000
    44 H25         42.8688    -8.0663    26.9545 H            1 MEI1001   0.0000
    45 H26         42.0749    -9.3453    27.5873 H            1 MEI1001   0.0000
    46 H27         41.7770    -6.5725    30.3991 H            1 MEI1001   0.0000
@<TRIPOS>BOND
     1    1    2       1
     2    2    3       1
     3    3    4       1
     4    3    5       1
     5    3    6       1
     6    6    7       1
     7    7    8       1
     8    8    9       1
     9    9   10       1
    10    9   11       1
    11   11   12       1
    12   12   13       2
    13   13   14       1
    14   14   15       1
    15   14   16       2
    16   16   17       1
    17   17   18      ar
    18   17   19      ar
    19    1   20       1
    20    1   21       1
    21    1   22       1
    22    4   23       1
    23    4   24       1
    24    4   25       1
    25    5   26       1
    26    5   27       1
    27    5   28       1
    28    6   29       1
    29    6   30       1
    30    7   31       1
    31    7   32       1
    32    8   33       1
    33    8   34       1
    34    9   35       1
    35   10   36       1
    36   10   37       1
    37   10   38       1
    38   11   39       1
    39   11   40       1
    40   12   41       1
    41   13   42       1
    42   15   43       1
    43   15   44       1
    44   15   45       1
    45   16   46       1
@<TRIPOS>SUBSTRUCTURE
     1 MEI1001     1 GROUP             4 A     MEI     0 **** MEI A1001
