@<TRIPOS>MOLECULE
2hko_FAD_1_ligand
   84    89     1     0     0
SMALL
NO_CHARGES


@<TRIPOS>ATOM
     1 PA          22.4970    43.3330    55.0810 P.3          1 FAD2762   0.0000
     2 O1A         22.7370    44.4710    56.0080 O.co2        1 FAD2762   0.0000
     3 O2A         23.6060    42.7150    54.3040 O.co2        1 FAD2762  -1.0000
     4 O5B         21.7970    42.2860    55.9790 O.3          1 FAD2762   0.0000
     5 C5B         21.3640    40.9790    55.5960 C.3          1 FAD2762   0.0000
     6 C4B         21.4840    40.2660    56.9090 C.3          1 FAD2762   0.0000
     7 O4B         21.1860    38.8590    56.8120 O.3          1 FAD2762   0.0000
     8 C3B         22.8660    40.3960    57.5920 C.3          1 FAD2762   0.0000
     9 O3B         22.8340    40.7960    58.9450 O.3          1 FAD2762   0.0000
    10 C2B         23.4750    39.0350    57.3570 C.3          1 FAD2762   0.0000
    11 O2B         24.5600    38.6810    58.1900 O.3          1 FAD2762   0.0000
    12 C1B         22.2400    38.1510    57.4750 C.3          1 FAD2762   0.0000
    13 N9A         22.3070    36.8050    56.9110 N.pl3        1 FAD2762   0.0000
    14 C8A         22.8970    36.3640    55.7650 C.2          1 FAD2762   0.0000
    15 N7A         22.7700    35.0650    55.5700 N.2          1 FAD2762   0.0000
    16 C5A         22.0370    34.6380    56.6620 C.ar         1 FAD2762   0.0000
    17 C6A         21.5830    33.3330    57.0660 C.ar         1 FAD2762   0.0000
    18 N6A         21.8110    32.2530    56.3240 N.pl3        1 FAD2762   0.0000
    19 N1A         20.8710    33.2280    58.2310 N.ar         1 FAD2762   0.0000
    20 C2A         20.6510    34.3530    58.9740 C.ar         1 FAD2762   0.0000
    21 N3A         21.0390    35.6150    58.6930 N.ar         1 FAD2762   0.0000
    22 C4A         21.7700    35.6670    57.4910 C.ar         1 FAD2762   0.0000
    23 N1          25.3450    52.0320    51.4750 N.2          1 FAD2762   0.0000
    24 C2          25.0920    53.3740    51.5290 C.2          1 FAD2762   0.0000
    25 O2          23.9280    53.8460    51.4620 O.2          1 FAD2762   0.0000
    26 N3          26.1630    54.2730    51.6980 N.pl3        1 FAD2762   0.0000
    27 C4          27.5150    53.9040    51.7830 C.2          1 FAD2762   0.0000
    28 O4          28.3980    54.7790    51.9430 O.2          1 FAD2762   0.0000
    29 C4X         27.7700    52.5160    51.7000 C.2          1 FAD2762   0.0000
    30 N5          29.1140    52.0550    51.7910 N.2          1 FAD2762   0.0000
    31 C5X         29.3380    50.6720    51.7740 C.ar         1 FAD2762   0.0000
    32 C6          30.6780    50.1680    51.9000 C.ar         1 FAD2762   0.0000
    33 C7          30.9470    48.8080    51.9260 C.ar         1 FAD2762   0.0000
    34 C7M         32.4040    48.3690    52.0720 C.3          1 FAD2762   0.0000
    35 C8          29.8870    47.8720    51.8260 C.ar         1 FAD2762   0.0000
    36 C8M         30.0920    46.3750    51.8600 C.3          1 FAD2762   0.0000
    37 C9          28.5450    48.3580    51.6900 C.ar         1 FAD2762   0.0000
    38 C9A         28.2470    49.7300    51.6540 C.ar         1 FAD2762   0.0000
    39 N10         26.8880    50.2370    51.5380 N.pl3        1 FAD2762   0.0000
    40 C10         26.6560    51.6090    51.5610 C.2          1 FAD2762   0.0000
    41 C1'         25.7710    49.2870    51.4060 C.3          1 FAD2762   0.0000
    42 C2'         24.8770    49.1390    52.6330 C.3          1 FAD2762   0.0000
    43 O2'         25.6910    48.8390    53.7800 O.3          1 FAD2762   0.0000
    44 C3'         23.8720    48.0560    52.2950 C.3          1 FAD2762   0.0000
    45 O3'         23.1260    48.4580    51.1450 O.3          1 FAD2762   0.0000
    46 C4'         22.8690    47.7400    53.4190 C.3          1 FAD2762   0.0000
    47 O4'         23.5670    47.3640    54.6060 O.3          1 FAD2762   0.0000
    48 C5'         21.9910    46.6120    52.9320 C.3          1 FAD2762   0.0000
    49 O5'         21.0440    46.2630    53.9150 O.3          1 FAD2762   0.0000
    50 P           20.2770    44.8820    53.8460 P.3          1 FAD2762   0.0000
    51 O1P         19.3440    44.8740    54.9820 O.co2        1 FAD2762   0.0000
    52 O2P         19.7230    44.7390    52.4570 O.co2        1 FAD2762  -1.0000
    53 O3P         21.3060    43.6770    54.0800 O.3          1 FAD2762   0.0000
    54 H5B1        21.9619    40.5793    54.9012 H            1 FAD2762   0.0000
    55 H5B2        20.4215    40.9840    55.2618 H            1 FAD2762   0.0000
    56 H4B         20.8094    40.6693    57.5273 H            1 FAD2762   0.0000
    57 H3B         23.4024    41.0685    57.0820 H            1 FAD2762   0.0000
    58 H5          22.3155    40.1274    59.4781 H            1 FAD2762   0.0000
    59 H2B         23.7903    38.9984    56.4087 H            1 FAD2762   0.0000
    60 H7          24.2631    38.6876    59.1449 H            1 FAD2762   0.0000
    61 H1B         22.0030    38.0727    58.4434 H            1 FAD2762   0.0000
    62 H8A         23.3807    36.9677    55.1313 H            1 FAD2762   0.0000
    63 H6A1        21.4840    31.3586    56.6291 H            1 FAD2762   0.0000
    64 H6A2        22.3094    32.3354    55.4610 H            1 FAD2762   0.0000
    65 H2A         20.1429    34.2268    59.8260 H            1 FAD2762   0.0000
    66 H13         25.9441    55.2466    51.7622 H            1 FAD2762   0.0000
    67 H14         31.4368    50.8155    51.9708 H            1 FAD2762   0.0000
    68 H7M1        32.4524    47.3702    52.0761 H            1 FAD2762   0.0000
    69 H7M2        32.9380    48.7254    51.3053 H            1 FAD2762   0.0000
    70 H7M3        32.7748    48.7242    52.9301 H            1 FAD2762   0.0000
    71 H8M1        29.2080    45.9155    51.7738 H            1 FAD2762   0.0000
    72 H8M2        30.6847    46.1024    51.1021 H            1 FAD2762   0.0000
    73 H8M3        30.5189    46.1166    52.7266 H            1 FAD2762   0.0000
    74 H21         27.7967    47.6985    51.6184 H            1 FAD2762   0.0000
    75 H1'1        26.1558    48.3881    51.1965 H            1 FAD2762   0.0000
    76 H1'2        25.1987    49.5903    50.6441 H            1 FAD2762   0.0000
    77 H2'         24.3918    49.9990    52.7910 H            1 FAD2762   0.0000
    78 H25         25.1660    48.2843    54.4255 H            1 FAD2762   0.0000
    79 H3'         24.3715    47.2190    52.0717 H            1 FAD2762   0.0000
    80 H27         23.0600    49.4556    51.1225 H            1 FAD2762   0.0000
    81 H4'         22.3069    48.5464    53.6025 H            1 FAD2762   0.0000
    82 H29         23.3001    46.4372    54.8702 H            1 FAD2762   0.0000
    83 H5'1        22.5611    45.8163    52.7273 H            1 FAD2762   0.0000
    84 H5'2        21.5129    46.9017    52.1029 H            1 FAD2762   0.0000
@<TRIPOS>BOND
     1    1    2      ar
     2    1    3      ar
     3    1    4       1
     4    1   53       1
     5    4    5       1
     6    5    6       1
     7    6    7       1
     8    6    8       1
     9    7   12       1
    10    8    9       1
    11    8   10       1
    12   10   11       1
    13   10   12       1
    14   12   13       1
    15   13   14       1
    16   13   22       1
    17   14   15       2
    18   15   16       1
    19   16   17      ar
    20   16   22      ar
    21   17   18       1
    22   17   19      ar
    23   19   20      ar
    24   20   21      ar
    25   21   22      ar
    26   23   24       1
    27   23   40       2
    28   24   25       2
    29   24   26       1
    30   26   27       1
    31   27   28       2
    32   27   29       1
    33   29   30       2
    34   29   40       1
    35   30   31       1
    36   31   32      ar
    37   31   38      ar
    38   32   33      ar
    39   33   34       1
    40   33   35      ar
    41   35   36       1
    42   35   37      ar
    43   37   38      ar
    44   38   39       1
    45   39   40       1
    46   39   41       1
    47   41   42       1
    48   42   43       1
    49   42   44       1
    50   44   45       1
    51   44   46       1
    52   46   47       1
    53   46   48       1
    54   48   49       1
    55   49   50       1
    56   50   51      ar
    57   50   52      ar
    58   50   53       1
    59   48   84       1
    60    5   54       1
    61    5   55       1
    62    6   56       1
    63    8   57       1
    64    9   58       1
    65   10   59       1
    66   11   60       1
    67   12   61       1
    68   14   62       1
    69   18   63       1
    70   18   64       1
    71   20   65       1
    72   26   66       1
    73   32   67       1
    74   34   68       1
    75   34   69       1
    76   34   70       1
    77   36   71       1
    78   36   72       1
    79   36   73       1
    80   37   74       1
    81   41   75       1
    82   41   76       1
    83   42   77       1
    84   43   78       1
    85   44   79       1
    86   45   80       1
    87   46   81       1
    88   47   82       1
    89   48   83       1
@<TRIPOS>SUBSTRUCTURE
     1 FAD2762     1 GROUP             4 A     FAD     0 **** FAD A2762
