@<TRIPOS>MOLECULE
3frq_ERY_1_ligand
  119   121     1     0     0
SMALL
NO_CHARGES


@<TRIPOS>ATOM
     1 C10          7.2290     9.6790    21.3060 C.3          1 ERY195   0.0000
     2 C11          6.8040     8.3070    20.8350 C.3          1 ERY195   0.0000
     3 C12          6.4410     8.2680    19.3500 C.3          1 ERY195   0.0000
     4 C13          6.3700     6.6870    18.9220 C.3          1 ERY195   0.0000
     5 O2           7.7520     6.1950    18.9230 O.3          1 ERY195   0.0000
     6 C2           9.4590     4.6310    19.5570 C.3          1 ERY195   0.0000
     7 C3          10.4170     4.9360    20.6840 C.3          1 ERY195   0.0000
     8 C4          10.9170     6.3730    20.6040 C.3          1 ERY195   0.0000
     9 C5          11.5070     6.8120    21.9650 C.3          1 ERY195   0.0000
    10 C6          10.3950     7.6390    22.6620 C.3          1 ERY195   0.0000
    11 C7          10.2910     9.1030    22.2870 C.3          1 ERY195   0.0000
    12 C8           9.2550     9.9260    23.0450 C.3          1 ERY195   0.0000
    13 C9           7.8160     9.5880    22.7420 C.2          1 ERY195   0.0000
    14 O11          7.1660     9.2040    23.7230 O.2          1 ERY195   0.0000
    15 C1           8.0930     5.2610    19.7630 C.2          1 ERY195   0.0000
    16 O1           7.3550     4.8340    20.6810 O.2          1 ERY195   0.0000
    17 O3          11.5950     3.9950    20.5810 O.3          1 ERY195   0.0000
    18 O7          12.6700     7.6310    21.7350 O.3          1 ERY195   0.0000
    19 C34          6.1100    10.7660    21.4090 C.3          1 ERY195   0.0000
    20 C33          9.5170    11.4740    22.7210 C.3          1 ERY195   0.0000
    21 C35          7.4220     9.0060    18.5380 C.3          1 ERY195   0.0000
    22 O12          5.7590     7.7510    21.6610 O.3          1 ERY195   0.0000
    23 O13          5.1490     8.7900    19.1280 O.3          1 ERY195   0.0000
    24 C36          5.8430     6.4770    17.5090 C.3          1 ERY195   0.0000
    25 C30          9.2740     3.1200    19.1960 C.3          1 ERY195   0.0000
    26 C32         10.6590     7.4350    24.2200 C.3          1 ERY195   0.0000
    27 O10          9.1500     6.9450    22.4740 O.3          1 ERY195   0.0000
    28 C22         13.5850     7.7170    22.8510 C.3          1 ERY195   0.0000
    29 C23         14.9950     7.7290    22.2920 C.3          1 ERY195   0.0000
    30 C24         15.9330     7.8180    23.5180 C.3          1 ERY195   0.0000
    31 C25         15.6080     9.0570    24.4000 C.3          1 ERY195   0.0000
    32 C26         14.1360     8.9590    24.7810 C.3          1 ERY195   0.0000
    33 O9          13.3780     8.9300    23.5800 O.3          1 ERY195   0.0000
    34 N1          17.3550     7.6540    23.1090 N.4          1 ERY195   1.0000
    35 C27         13.7180    10.1940    25.5730 C.3          1 ERY195   0.0000
    36 O8          15.2180     6.4470    21.6990 O.3          1 ERY195   0.0000
    37 C28         17.7490     8.7130    22.1580 C.3          1 ERY195   0.0000
    38 C14         11.3990     2.9170    21.4990 C.3          1 ERY195   0.0000
    39 C15         12.0740     1.6470    20.9430 C.3          1 ERY195   0.0000
    40 C16         13.6020     1.7660    20.8590 C.3          1 ERY195   0.0000
    41 C17         14.0770     2.1310    22.2640 C.3          1 ERY195   0.0000
    42 C18         13.3950     3.4230    22.7170 C.3          1 ERY195   0.0000
    43 O4          11.9920     3.2670    22.7530 O.3          1 ERY195   0.0000
    44 O5          14.0480     2.8290    19.9710 O.3          1 ERY195   0.0000
    45 O6          15.5110     2.2830    22.2390 O.3          1 ERY195   0.0000
    46 C20         13.5100     2.7640    18.6210 C.3          1 ERY195   0.0000
    47 C29         18.2060     7.7820    24.3150 C.3          1 ERY195   0.0000
    48 C21         13.8170     3.8850    24.1160 C.3          1 ERY195   0.0000
    49 C37          5.6690     4.9540    17.3040 C.3          1 ERY195   0.0000
    50 C31         12.0400     6.3760    19.5060 C.3          1 ERY195   0.0000
    51 C19         14.1780     0.3830    20.4620 C.3          1 ERY195   0.0000
    52 H1           7.9431    10.0170    20.6930 H            1 ERY195   0.0000
    53 H2           7.5993     7.7112    20.9469 H            1 ERY195   0.0000
    54 H3           5.8178     6.1736    19.5788 H            1 ERY195   0.0000
    55 H4           9.8435     5.0649    18.7422 H            1 ERY195   0.0000
    56 H5           9.9549     4.7941    21.5594 H            1 ERY195   0.0000
    57 H6          10.1715     6.9839    20.3374 H            1 ERY195   0.0000
    58 H7          11.7459     6.0128    22.5165 H            1 ERY195   0.0000
    59 H8          10.0659     9.1524    21.3139 H            1 ERY195   0.0000
    60 H9          11.1856     9.5214    22.4438 H            1 ERY195   0.0000
    61 H10          9.4054     9.7858    24.0236 H            1 ERY195   0.0000
    62 H11          6.5087    11.6256    21.7287 H            1 ERY195   0.0000
    63 H12          5.6962    10.9047    20.5093 H            1 ERY195   0.0000
    64 H13          5.4094    10.4630    22.0550 H            1 ERY195   0.0000
    65 H14          8.8476    12.0345    23.2086 H            1 ERY195   0.0000
    66 H15         10.4393    11.7247    23.0153 H            1 ERY195   0.0000
    67 H16          9.4275    11.6284    21.7370 H            1 ERY195   0.0000
    68 H17          7.1577     8.9621    17.5746 H            1 ERY195   0.0000
    69 H18          7.4481     9.9610    18.8333 H            1 ERY195   0.0000
    70 H19          8.3267     8.5962    18.6544 H            1 ERY195   0.0000
    71 H20          6.0858     7.6703    22.6026 H            1 ERY195   0.0000
    72 H21          4.9377     8.7526    18.1513 H            1 ERY195   0.0000
    73 H22          6.4952     6.8395    16.8432 H            1 ERY195   0.0000
    74 H23          4.9632     6.9396    17.3997 H            1 ERY195   0.0000
    75 H24          8.6228     3.0348    18.4419 H            1 ERY195   0.0000
    76 H25         10.1542     2.7326    18.9217 H            1 ERY195   0.0000
    77 H26          8.9268     2.6268    19.9936 H            1 ERY195   0.0000
    78 H27          9.9750     7.9432    24.7433 H            1 ERY195   0.0000
    79 H28         10.5954     6.4626    24.4443 H            1 ERY195   0.0000
    80 H29         11.5723     7.7712    24.4502 H            1 ERY195   0.0000
    81 H30          8.7633     6.7068    23.3649 H            1 ERY195   0.0000
    82 H31         13.4630     6.9295    23.4551 H            1 ERY195   0.0000
    83 H32         15.1416     8.4778    21.6457 H            1 ERY195   0.0000
    84 H33         15.7191     7.0202    24.0817 H            1 ERY195   0.0000
    85 H34         15.7742     9.8981    23.8853 H            1 ERY195   0.0000
    86 H35         16.1767     9.0517    25.2225 H            1 ERY195   0.0000
    87 H36         13.9703     8.1307    25.3163 H            1 ERY195   0.0000
    88 H37         12.7514    10.1211    25.8186 H            1 ERY195   0.0000
    89 H38         14.2693    10.2589    26.4048 H            1 ERY195   0.0000
    90 H39         13.8594    11.0116    25.0148 H            1 ERY195   0.0000
    91 H40         15.9904     6.0006    22.1508 H            1 ERY195   0.0000
    92 H41         18.7055     8.5862    21.8954 H            1 ERY195   0.0000
    93 H42         17.1703     8.6622    21.3440 H            1 ERY195   0.0000
    94 H43         17.6379     9.6077    22.5906 H            1 ERY195   0.0000
    95 H44         10.4204     2.7526    21.6226 H            1 ERY195   0.0000
    96 H45         11.7173     1.4726    20.0252 H            1 ERY195   0.0000
    97 H46         11.8469     0.8780    21.5406 H            1 ERY195   0.0000
    98 H47         13.8356     1.3934    22.8946 H            1 ERY195   0.0000
    99 H48         13.6176     4.1460    22.0630 H            1 ERY195   0.0000
   100 H49         15.7525     3.2127    22.5170 H            1 ERY195   0.0000
   101 H50         13.8667     3.5277    18.0829 H            1 ERY195   0.0000
   102 H51         13.7813     1.9008    18.1953 H            1 ERY195   0.0000
   103 H52         12.5121     2.8189    18.6568 H            1 ERY195   0.0000
   104 H53         19.1664     7.6743    24.0582 H            1 ERY195   0.0000
   105 H54         18.0697     8.6839    24.7249 H            1 ERY195   0.0000
   106 H55         17.9562     7.0743    24.9759 H            1 ERY195   0.0000
   107 H56         13.3356     4.7305    24.3472 H            1 ERY195   0.0000
   108 H57         13.5874     3.1773    24.7841 H            1 ERY195   0.0000
   109 H58         14.8034     4.0487    24.1295 H            1 ERY195   0.0000
   110 H59          5.3228     4.7791    16.3823 H            1 ERY195   0.0000
   111 H60          6.5519     4.4990    17.4203 H            1 ERY195   0.0000
   112 H61          5.0199     4.5991    17.9768 H            1 ERY195   0.0000
   113 H62         12.4086     7.3005    19.4087 H            1 ERY195   0.0000
   114 H63         12.7728     5.7518    19.7770 H            1 ERY195   0.0000
   115 H64         11.6537     6.0776    18.6333 H            1 ERY195   0.0000
   116 H65         15.1745     0.4416    20.4024 H            1 ERY195   0.0000
   117 H66         13.9247    -0.2943    21.1527 H            1 ERY195   0.0000
   118 H67         13.8065     0.1094    19.5748 H            1 ERY195   0.0000
   119 H68         17.4880     6.7549    22.6920 H            1 ERY195   0.0000
@<TRIPOS>BOND
     1    1    2       1
     2    1   13       1
     3    1   19       1
     4    2    3       1
     5    2   22       1
     6    3    4       1
     7    3   21       1
     8    3   23       1
     9    4    5       1
    10    4   24       1
    11    5   15       1
    12    6    7       1
    13    6   15       1
    14    6   25       1
    15    7    8       1
    16    7   17       1
    17    8    9       1
    18    8   50       1
    19    9   10       1
    20    9   18       1
    21   10   11       1
    22   10   26       1
    23   10   27       1
    24   11   12       1
    25   12   13       1
    26   12   20       1
    27   13   14       2
    28   15   16       2
    29   17   38       1
    30   18   28       1
    31   24   49       1
    32   28   29       1
    33   28   33       1
    34   29   30       1
    35   29   36       1
    36   30   31       1
    37   30   34       1
    38   31   32       1
    39   32   33       1
    40   32   35       1
    41   34   37       1
    42   34   47       1
    43   38   39       1
    44   38   43       1
    45   39   40       1
    46   40   41       1
    47   40   44       1
    48   40   51       1
    49   41   42       1
    50   41   45       1
    51   42   43       1
    52   42   48       1
    53   44   46       1
    54    1   52       1
    55    2   53       1
    56    4   54       1
    57    6   55       1
    58    7   56       1
    59    8   57       1
    60    9   58       1
    61   11   59       1
    62   11   60       1
    63   12   61       1
    64   19   62       1
    65   19   63       1
    66   19   64       1
    67   20   65       1
    68   20   66       1
    69   20   67       1
    70   21   68       1
    71   21   69       1
    72   21   70       1
    73   22   71       1
    74   23   72       1
    75   24   73       1
    76   24   74       1
    77   25   75       1
    78   25   76       1
    79   25   77       1
    80   26   78       1
    81   26   79       1
    82   26   80       1
    83   27   81       1
    84   28   82       1
    85   29   83       1
    86   30   84       1
    87   31   85       1
    88   31   86       1
    89   32   87       1
    90   35   88       1
    91   35   89       1
    92   35   90       1
    93   36   91       1
    94   37   92       1
    95   37   93       1
    96   37   94       1
    97   38   95       1
    98   39   96       1
    99   39   97       1
   100   41   98       1
   101   42   99       1
   102   45  100       1
   103   46  101       1
   104   46  102       1
   105   46  103       1
   106   47  104       1
   107   47  105       1
   108   47  106       1
   109   48  107       1
   110   48  108       1
   111   48  109       1
   112   49  110       1
   113   49  111       1
   114   49  112       1
   115   50  113       1
   116   50  114       1
   117   50  115       1
   118   51  116       1
   119   51  117       1
   120   51  118       1
   121   34  119       1
@<TRIPOS>SUBSTRUCTURE
     1 ERY195      1 GROUP             4 A     ERY     0 **** ERY A 195
