@<TRIPOS>MOLECULE
3vc1_SAH_12_ligand
   46    48     1     0     0
SMALL
NO_CHARGES


@<TRIPOS>ATOM
     1 N           10.6630     2.4920    -4.2300 N.4          1 SAH302   1.0000
     2 CA          10.2540     2.8960    -5.6350 C.3          1 SAH302   0.0000
     3 CB          10.2910     4.4170    -5.9180 C.3          1 SAH302   0.0000
     4 CG          11.6070     5.1390    -5.6010 C.3          1 SAH302   0.0000
     5 SD          11.4900     6.8180    -6.2020 S.3          1 SAH302   0.0000
     6 C           11.0250     2.0910    -6.6460 C.2          1 SAH302   0.0000
     7 O           10.6100     2.0300    -7.8460 O.co2        1 SAH302   0.0000
     8 OXT         12.0540     1.4830    -6.2240 O.co2        1 SAH302  -1.0000
     9 C5'         11.1940     7.7970    -4.7350 C.3          1 SAH302   0.0000
    10 C4'          9.7950     7.6130    -4.1620 C.3          1 SAH302   0.0000
    11 O4'          9.6880     8.1010    -2.7970 O.3          1 SAH302   0.0000
    12 C3'          8.7010     8.3790    -4.9190 C.3          1 SAH302   0.0000
    13 O3'          7.6700     7.4310    -5.1990 O.3          1 SAH302   0.0000
    14 C2'          8.2300     9.4690    -3.9560 C.3          1 SAH302   0.0000
    15 O2'          6.8500     9.8360    -4.0990 O.3          1 SAH302   0.0000
    16 C1'          8.4190     8.7410    -2.6590 C.3          1 SAH302   0.0000
    17 N9           8.4430     9.5710    -1.4420 N.pl3        1 SAH302   0.0000
    18 C8           9.3530    10.4790    -1.0720 C.2          1 SAH302   0.0000
    19 N7           9.0330    10.9650     0.1620 N.2          1 SAH302   0.0000
    20 C5           7.9210    10.3370     0.5550 C.ar         1 SAH302   0.0000
    21 C6           7.0360    10.3870     1.7190 C.ar         1 SAH302   0.0000
    22 N6           7.3310    11.2910     2.8020 N.pl3        1 SAH302   0.0000
    23 N1           5.9530     9.5810     1.7900 N.ar         1 SAH302   0.0000
    24 C2           5.5670     8.6340     0.7820 C.ar         1 SAH302   0.0000
    25 N3           6.4340     8.6350    -0.3770 N.ar         1 SAH302   0.0000
    26 C4           7.5420     9.4100    -0.4790 C.ar         1 SAH302   0.0000
    27 H1          10.6089     1.4975    -4.1400 H            1 SAH302   0.0000
    28 H2          11.6011     2.7918    -4.0567 H            1 SAH302   0.0000
    29 HA           9.2979     2.6202    -5.7340 H            1 SAH302   0.0000
    30 HB1          9.5703     4.8453    -5.3730 H            1 SAH302   0.0000
    31 HB2         10.0976     4.5502    -6.8900 H            1 SAH302   0.0000
    32 HG1         12.3662     4.6708    -6.0531 H            1 SAH302   0.0000
    33 HG2         11.7596     5.1441    -4.6127 H            1 SAH302   0.0000
    34 H5'1        11.3180     8.7619    -4.9666 H            1 SAH302   0.0000
    35 H5'2        11.8602     7.5334    -4.0374 H            1 SAH302   0.0000
    36 H4'          9.5699     6.6387    -4.1726 H            1 SAH302   0.0000
    37 H3'          9.0607     8.7772    -5.7629 H            1 SAH302   0.0000
    38 H12          7.2039     7.6859    -6.0462 H            1 SAH302   0.0000
    39 H2'          8.8225    10.2730    -4.0062 H            1 SAH302   0.0000
    40 H14          6.3268     9.0467    -4.4204 H            1 SAH302   0.0000
    41 H1'          7.7079     8.0439    -2.5671 H            1 SAH302   0.0000
    42 H16         10.1447    10.7581    -1.6154 H            1 SAH302   0.0000
    43 H17          6.7292    11.3289     3.5997 H            1 SAH302   0.0000
    44 H18          8.1375    11.8804     2.7557 H            1 SAH302   0.0000
    45 H19          4.7744     8.0310     0.8722 H            1 SAH302   0.0000
    46 H20         10.0484     2.9206    -3.5677 H            1 SAH302   0.0000
@<TRIPOS>BOND
     1    1    2       1
     2    2    3       1
     3    2    6       1
     4    3    4       1
     5    4    5       1
     6    5    9       1
     7    6    7      ar
     8    6    8      ar
     9    9   10       1
    10   10   11       1
    11   10   12       1
    12   11   16       1
    13   12   13       1
    14   12   14       1
    15   14   15       1
    16   14   16       1
    17   16   17       1
    18   17   18       1
    19   17   26       1
    20   18   19       2
    21   19   20       1
    22   20   21      ar
    23   20   26      ar
    24   21   22       1
    25   21   23      ar
    26   23   24      ar
    27   24   25      ar
    28   25   26      ar
    29    1   27       1
    30    1   28       1
    31    2   29       1
    32    3   30       1
    33    3   31       1
    34    4   32       1
    35    4   33       1
    36    1   46       1
    37    9   34       1
    38    9   35       1
    39   10   36       1
    40   12   37       1
    41   13   38       1
    42   14   39       1
    43   15   40       1
    44   16   41       1
    45   18   42       1
    46   22   43       1
    47   22   44       1
    48   24   45       1
@<TRIPOS>SUBSTRUCTURE
     1 SAH302      1 GROUP             4 L     SAH     0 **** SAH L 302
