@<TRIPOS>MOLECULE
3dh7_FMN_2_ligand
   50    52     1     0     0
SMALL
NO_CHARGES


@<TRIPOS>ATOM
     1 N1          49.0390   -44.8260   -38.9460 N.2          1 FMN502   0.0000
     2 C2          50.3310   -44.8880   -39.4200 C.2          1 FMN502   0.0000
     3 O2          51.0570   -43.8800   -39.4050 O.2          1 FMN502   0.0000
     4 N3          50.8930   -46.0030   -39.9260 N.pl3        1 FMN502   0.0000
     5 C4          50.1900   -47.1480   -40.0100 C.2          1 FMN502   0.0000
     6 O4          50.7350   -48.1850   -40.4950 O.2          1 FMN502   0.0000
     7 C4A         48.8560   -47.1740   -39.5570 C.2          1 FMN502   0.0000
     8 N5          48.1570   -48.3290   -39.6300 N.2          1 FMN502   0.0000
     9 C5A         46.8750   -48.3580   -39.2080 C.ar         1 FMN502   0.0000
    10 C6          46.1890   -49.4210   -39.2740 C.ar         1 FMN502   0.0000
    11 C7          44.9820   -49.4440   -38.8890 C.ar         1 FMN502   0.0000
    12 C7M         44.4000   -50.8280   -39.0760 C.3          1 FMN502   0.0000
    13 C8          44.4000   -48.3590   -38.4110 C.ar         1 FMN502   0.0000
    14 C8M         42.9880   -48.2990   -37.9090 C.3          1 FMN502   0.0000
    15 C9          45.0130   -47.2300   -38.3040 C.ar         1 FMN502   0.0000
    16 C9A         46.2340   -47.1260   -38.6620 C.ar         1 FMN502   0.0000
    17 N10         46.9120   -45.9310   -38.5680 N.pl3        1 FMN502   0.0000
    18 C10         48.2260   -45.9230   -38.9820 C.2          1 FMN502   0.0000
    19 C1'         46.2410   -44.7370   -37.9800 C.3          1 FMN502   0.0000
    20 C2'         45.9000   -43.4000   -38.6980 C.3          1 FMN502   0.0000
    21 O2'         46.7880   -42.9090   -39.7090 O.3          1 FMN502   0.0000
    22 C3'         45.7740   -42.2660   -37.6460 C.3          1 FMN502   0.0000
    23 O3'         46.7230   -42.4220   -36.5700 O.3          1 FMN502   0.0000
    24 C4'         44.3090   -42.0560   -37.1230 C.3          1 FMN502   0.0000
    25 O4'         44.0620   -40.7390   -36.5520 O.3          1 FMN502   0.0000
    26 C5'         43.7050   -43.2320   -36.3040 C.3          1 FMN502   0.0000
    27 O5'         42.2980   -43.3210   -36.6530 O.3          1 FMN502   0.0000
    28 P           41.3800   -41.9850   -36.8330 P.3          1 FMN502   0.0000
    29 O1P         42.3070   -41.1340   -37.6640 O.co2        1 FMN502   0.0000
    30 O2P         41.1510   -42.0010   -35.3880 O.co2        1 FMN502  -1.0000
    31 O3P         40.0700   -42.2720   -37.5460 O.co2        1 FMN502  -1.0000
    32 H1          51.8414   -45.9799   -40.2422 H            1 FMN502   0.0000
    33 H2          46.6064   -50.2547   -39.6355 H            1 FMN502   0.0000
    34 H7M1        43.4483   -50.8337   -38.7690 H            1 FMN502   0.0000
    35 H7M2        44.4397   -51.0784   -40.0433 H            1 FMN502   0.0000
    36 H7M3        44.9273   -51.4867   -38.5392 H            1 FMN502   0.0000
    37 H8M1        42.7830   -47.3700   -37.6008 H            1 FMN502   0.0000
    38 H8M2        42.3612   -48.5516   -38.6461 H            1 FMN502   0.0000
    39 H8M3        42.8784   -48.9353   -37.1454 H            1 FMN502   0.0000
    40 H9          44.5307   -46.4334   -37.9395 H            1 FMN502   0.0000
    41 H1'1        46.8180   -44.4732   -37.2070 H            1 FMN502   0.0000
    42 H1'2        45.3639   -45.0768   -37.6405 H            1 FMN502   0.0000
    43 H2'         45.0013   -43.5121   -39.1220 H            1 FMN502   0.0000
    44 H13         46.2680   -42.3851   -40.3836 H            1 FMN502   0.0000
    45 H3'         46.0247   -41.4205   -38.1174 H            1 FMN502   0.0000
    46 H15         46.6104   -41.6746   -35.9153 H            1 FMN502   0.0000
    47 H4'         43.7623   -42.0518   -37.9603 H            1 FMN502   0.0000
    48 H17         43.1036   -40.4897   -36.6913 H            1 FMN502   0.0000
    49 H5'1        43.8045   -43.0542   -35.3250 H            1 FMN502   0.0000
    50 H5'2        44.1703   -44.0860   -36.5367 H            1 FMN502   0.0000
@<TRIPOS>BOND
     1    1    2       1
     2    1   18       2
     3    2    3       2
     4    2    4       1
     5    4    5       1
     6    5    6       2
     7    5    7       1
     8    7    8       2
     9    7   18       1
    10    8    9       1
    11    9   10      ar
    12    9   16      ar
    13   10   11      ar
    14   11   12       1
    15   11   13      ar
    16   13   14       1
    17   13   15      ar
    18   15   16      ar
    19   16   17       1
    20   17   18       1
    21   17   19       1
    22   19   20       1
    23   20   21       1
    24   20   22       1
    25   22   23       1
    26   22   24       1
    27   24   25       1
    28   24   26       1
    29   26   27       1
    30   27   28       1
    31   28   29      ar
    32   28   30      ar
    33   28   31      ar
    34    4   32       1
    35   10   33       1
    36   12   34       1
    37   12   35       1
    38   12   36       1
    39   14   37       1
    40   14   38       1
    41   14   39       1
    42   15   40       1
    43   19   41       1
    44   19   42       1
    45   20   43       1
    46   21   44       1
    47   22   45       1
    48   23   46       1
    49   24   47       1
    50   25   48       1
    51   26   49       1
    52   26   50       1
@<TRIPOS>SUBSTRUCTURE
     1 FMN502      1 GROUP             4 B     FMN     0 **** FMN B 502
