@<TRIPOS>MOLECULE
5d2n_IMD_1_ligand
    9     9     1     0     0
SMALL
NO_CHARGES


@<TRIPOS>ATOM
     1 N1          40.1720    -0.1960     1.8560 N.pl3        1 IMD301   0.0000
     2 C2          38.9550    -0.6270     1.5110 C.2          1 IMD301   0.0000
     3 N3          38.9160    -0.8650     0.2030 N.2          1 IMD301   0.0000
     4 C4          40.1190    -0.5770    -0.3070 C.2          1 IMD301   0.0000
     5 C5          40.8980    -0.1630     0.7360 C.2          1 IMD301   0.0000
     6 H1          40.4792     0.0533     2.7744 H            1 IMD301   0.0000
     7 H2          38.1889    -0.7518     2.1414 H            1 IMD301   0.0000
     8 H3          40.3944    -0.6505    -1.2655 H            1 IMD301   0.0000
     9 H4          41.8553     0.1187     0.6712 H            1 IMD301   0.0000
@<TRIPOS>BOND
     1    1    2       1
     2    1    5       1
     3    2    3       2
     4    3    4       1
     5    4    5       2
     6    1    6       1
     7    2    7       1
     8    4    8       1
     9    5    9       1
@<TRIPOS>SUBSTRUCTURE
     1 IMD301      1 GROUP             4 A     IMD     0 **** IMD A 301
