@<TRIPOS>MOLECULE
2ej2_PPE_3_ligand
   41    41     1     0     0
SMALL
NO_CHARGES


@<TRIPOS>ATOM
     1 N1          31.2260     8.1980    34.4330 N.ar         1 PPE1413   0.0000
     2 C2          31.7770     7.0330    35.0250 C.ar         1 PPE1413   0.0000
     3 C2A         30.9510     6.6340    36.2560 C.3          1 PPE1413   0.0000
     4 C3          32.9790     6.4440    34.3900 C.ar         1 PPE1413   0.0000
     5 O3          33.4220     5.3460    35.0270 O.3          1 PPE1413   0.0000
     6 C4          33.5910     6.9800    33.2400 C.ar         1 PPE1413   0.0000
     7 C4A         34.8230     6.2820    32.6790 C.3          1 PPE1413   0.0000
     8 C5          32.9230     8.1880    32.7280 C.ar         1 PPE1413   0.0000
     9 C6          31.7680     8.8010    33.2920 C.ar         1 PPE1413   0.0000
    10 C5A         33.4200     8.9340    31.5090 C.3          1 PPE1413   0.0000
    11 OP4         34.5540     9.6470    31.7660 O.3          1 PPE1413   0.0000
    12 P           35.7560     9.8500    30.7360 P.3          1 PPE1413   0.0000
    13 OP1         35.3210    10.6050    29.5870 O.co2        1 PPE1413   0.0000
    14 OP2         36.2660     8.4410    30.5070 O.co2        1 PPE1413  -1.0000
    15 OP3         36.7370    10.7050    31.5150 O.co2        1 PPE1413  -1.0000
    16 NA          34.2690     5.0380    32.0130 N.4          1 PPE1413   1.0000
    17 CAA         35.3190     3.9420    31.9000 C.3          1 PPE1413   0.0000
    18 CBA         34.6830     2.5360    31.6450 C.3          1 PPE1413   0.0000
    19 CGA         35.5170     1.3060    32.0890 C.3          1 PPE1413   0.0000
    20 CDA         35.5390     0.1610    31.0420 C.2          1 PPE1413   0.0000
    21 OE1         36.6220    -0.3810    30.8490 O.co2        1 PPE1413   0.0000
    22 OE2         34.4240    -0.0810    30.5210 O.co2        1 PPE1413  -1.0000
    23 CA          36.2600     4.3030    30.7570 C.2          1 PPE1413   0.0000
    24 OA          37.5530     4.0290    31.1170 O.co2        1 PPE1413   0.0000
    25 OXT         35.8640     4.8140    29.5980 O.co2        1 PPE1413  -1.0000
    26 H2A1        31.3439     5.8124    36.6691 H            1 PPE1413   0.0000
    27 H2A2        30.9631     7.3802    36.9216 H            1 PPE1413   0.0000
    28 H2A3        30.0080     6.4495    35.9791 H            1 PPE1413   0.0000
    29 H4          34.2290     4.8625    34.6878 H            1 PPE1413   0.0000
    30 H4A1        35.4587     6.0396    33.4119 H            1 PPE1413   0.0000
    31 H4A2        35.2888     6.8643    32.0127 H            1 PPE1413   0.0000
    32 H7          31.3633     9.6233    32.8919 H            1 PPE1413   0.0000
    33 H5A1        32.7059     9.5642    31.2042 H            1 PPE1413   0.0000
    34 H5A2        33.6130     8.2730    30.7838 H            1 PPE1413   0.0000
    35 HA1         33.9502     5.2766    31.0957 H            1 PPE1413   0.0000
    36 HAA         35.8433     3.9090    32.7509 H            1 PPE1413   0.0000
    37 HBA1        34.5173     2.4516    30.6624 H            1 PPE1413   0.0000
    38 HBA2        33.8113     2.5041    32.1340 H            1 PPE1413   0.0000
    39 HGA1        35.1281     0.9502    32.9388 H            1 PPE1413   0.0000
    40 HGA2        36.4576     1.6037    32.2519 H            1 PPE1413   0.0000
    41 HA2         33.5009     4.6958    32.5543 H            1 PPE1413   0.0000
@<TRIPOS>BOND
     1    1    2      ar
     2    1    9      ar
     3    2    3       1
     4    2    4      ar
     5    4    5       1
     6    4    6      ar
     7    6    7       1
     8    6    8      ar
     9    7   16       1
    10    8    9      ar
    11    8   10       1
    12   10   11       1
    13   11   12       1
    14   12   13      ar
    15   12   14      ar
    16   12   15      ar
    17   16   17       1
    18   17   18       1
    19   17   23       1
    20   18   19       1
    21   19   20       1
    22   20   21      ar
    23   20   22      ar
    24   23   24      ar
    25   23   25      ar
    26    3   26       1
    27    3   27       1
    28    3   28       1
    29    5   29       1
    30    7   30       1
    31    7   31       1
    32    9   32       1
    33   10   33       1
    34   10   34       1
    35   19   40       1
    36   16   41       1
    37   16   35       1
    38   17   36       1
    39   18   37       1
    40   18   38       1
    41   19   39       1
@<TRIPOS>SUBSTRUCTURE
     1 PPE1413     1 GROUP             4 C     PPE     0 **** PPE C1413
