@<TRIPOS>MOLECULE
4uwm_FMN_2_ligand
   50    52     1     0     0
SMALL
NO_CHARGES


@<TRIPOS>ATOM
     1 N1         -27.2790    -7.3710    21.3700 N.2          1 FMN400   0.0000
     2 C2         -26.2670    -8.0750    21.9480 C.2          1 FMN400   0.0000
     3 O2         -25.2420    -7.4690    22.3190 O.2          1 FMN400   0.0000
     4 N3         -26.3210    -9.4040    22.1420 N.pl3        1 FMN400   0.0000
     5 C4         -27.3810   -10.1330    21.7800 C.2          1 FMN400   0.0000
     6 O4         -27.3940   -11.3640    21.9780 O.2          1 FMN400   0.0000
     7 C4A        -28.5320    -9.4490    21.1370 C.2          1 FMN400   0.0000
     8 N5         -29.6340   -10.1280    20.7450 N.2          1 FMN400   0.0000
     9 C5A        -30.6750    -9.4900    20.1620 C.ar         1 FMN400   0.0000
    10 C6         -31.7910   -10.2310    19.7730 C.ar         1 FMN400   0.0000
    11 C7         -32.8780    -9.6060    19.1690 C.ar         1 FMN400   0.0000
    12 C7M        -34.0700   -10.4330    18.7560 C.3          1 FMN400   0.0000
    13 C8         -32.8370    -8.1280    18.9440 C.ar         1 FMN400   0.0000
    14 C8M        -33.9840    -7.4050    18.2990 C.3          1 FMN400   0.0000
    15 C9         -31.7250    -7.3840    19.3330 C.ar         1 FMN400   0.0000
    16 C9A        -30.6320    -8.0060    19.9360 C.ar         1 FMN400   0.0000
    17 N10        -29.4850    -7.2640    20.3320 N.pl3        1 FMN400   0.0000
    18 C10        -28.4190    -7.9760    20.9480 C.2          1 FMN400   0.0000
    19 C1'        -29.4140    -5.7990    20.1400 C.3          1 FMN400   0.0000
    20 C2'        -28.6750    -5.3980    18.8660 C.3          1 FMN400   0.0000
    21 O2'        -27.5740    -6.2800    18.6470 O.3          1 FMN400   0.0000
    22 C3'        -28.1660    -3.9600    18.9460 C.3          1 FMN400   0.0000
    23 O3'        -29.2420    -3.0660    18.6160 O.3          1 FMN400   0.0000
    24 C4'        -26.9780    -3.7400    18.0080 C.3          1 FMN400   0.0000
    25 O4'        -25.7500    -3.9850    18.7020 O.3          1 FMN400   0.0000
    26 C5'        -26.9300    -2.3460    17.3920 C.3          1 FMN400   0.0000
    27 O5'        -27.5310    -2.4340    16.1030 O.3          1 FMN400   0.0000
    28 P          -27.0730    -1.5640    14.8360 P.3          1 FMN400   0.0000
    29 O1P        -25.7000    -1.0300    15.1210 O.co2        1 FMN400   0.0000
    30 O2P        -27.1230    -2.5770    13.7250 O.co2        1 FMN400  -1.0000
    31 O3P        -28.1490    -0.5070    14.7980 O.co2        1 FMN400  -1.0000
    32 H1         -25.5426    -9.8622    22.5712 H            1 FMN400   0.0000
    33 H2         -31.8102   -11.2185    19.9293 H            1 FMN400   0.0000
    34 H7M1       -34.7594    -9.8397    18.3404 H            1 FMN400   0.0000
    35 H7M2       -33.7824   -11.1247    18.0935 H            1 FMN400   0.0000
    36 H7M3       -34.4584   -10.8829    19.5602 H            1 FMN400   0.0000
    37 H8M1       -33.7704    -6.4301    18.2361 H            1 FMN400   0.0000
    38 H8M2       -34.1363    -7.7728    17.3816 H            1 FMN400   0.0000
    39 H8M3       -34.8092    -7.5306    18.8497 H            1 FMN400   0.0000
    40 H9         -31.7105    -6.3961    19.1786 H            1 FMN400   0.0000
    41 H1'1       -28.9390    -5.3979    20.9233 H            1 FMN400   0.0000
    42 H1'2       -30.3456    -5.4383    20.0946 H            1 FMN400   0.0000
    43 H2'        -29.3047    -5.4729    18.0928 H            1 FMN400   0.0000
    44 H13        -27.2316    -6.6104    19.5265 H            1 FMN400   0.0000
    45 H3'        -27.8723    -3.7756    19.8839 H            1 FMN400   0.0000
    46 H15        -29.2437    -2.8958    17.6306 H            1 FMN400   0.0000
    47 H4'        -27.0477    -4.4032    17.2628 H            1 FMN400   0.0000
    48 H17        -25.4995    -4.9484    18.6062 H            1 FMN400   0.0000
    49 H5'1       -25.9813    -2.0412    17.3076 H            1 FMN400   0.0000
    50 H5'2       -27.4377    -1.7012    17.9634 H            1 FMN400   0.0000
@<TRIPOS>BOND
     1    1    2       1
     2    1   18       2
     3    2    3       2
     4    2    4       1
     5    4    5       1
     6    5    6       2
     7    5    7       1
     8    7    8       2
     9    7   18       1
    10    8    9       1
    11    9   10      ar
    12    9   16      ar
    13   10   11      ar
    14   11   12       1
    15   11   13      ar
    16   13   14       1
    17   13   15      ar
    18   15   16      ar
    19   16   17       1
    20   17   18       1
    21   17   19       1
    22   19   20       1
    23   20   21       1
    24   20   22       1
    25   22   23       1
    26   22   24       1
    27   24   25       1
    28   24   26       1
    29   26   27       1
    30   27   28       1
    31   28   29      ar
    32   28   30      ar
    33   28   31      ar
    34    4   32       1
    35   10   33       1
    36   12   34       1
    37   12   35       1
    38   12   36       1
    39   14   37       1
    40   14   38       1
    41   14   39       1
    42   15   40       1
    43   19   41       1
    44   19   42       1
    45   20   43       1
    46   21   44       1
    47   22   45       1
    48   23   46       1
    49   24   47       1
    50   25   48       1
    51   26   49       1
    52   26   50       1
@<TRIPOS>SUBSTRUCTURE
     1 FMN400      1 GROUP             4 B     FMN     0 **** FMN B 400
