@<TRIPOS>MOLECULE
2ivf_MGD_1_ligand
   70    75     1     0     0
SMALL
NO_CHARGES


@<TRIPOS>ATOM
     1 PB          29.2170    26.4100     9.6790 P.3          1 MGD1986   0.0000
     2 O1B         28.8170    26.8550     8.3160 O.co2        1 MGD1986   0.0000
     3 O2B         28.0950    26.0930    10.6000 O.co2        1 MGD1986  -1.0000
     4 O3B         30.1800    27.3800    10.4650 O.3          1 MGD1986   0.0000
     5 O3A         30.3400    29.5860     9.2010 O.3          1 MGD1986   0.0000
     6 PA          31.2390    28.4980     9.9450 P.3          1 MGD1986   0.0000
     7 O1A         32.1710    27.9940     8.9310 O.co2        1 MGD1986   0.0000
     8 O2A         31.7880    29.0560    11.1670 O.co2        1 MGD1986  -1.0000
     9 O5'         30.1480    25.1030     9.5710 O.3          1 MGD1986   0.0000
    10 C5'         29.6870    23.9770     8.8100 C.3          1 MGD1986   0.0000
    11 C4'         30.5580    22.7580     9.1010 C.3          1 MGD1986   0.0000
    12 O4'         30.3450    22.3160    10.4340 O.3          1 MGD1986   0.0000
    13 C3'         29.9280    21.6740     8.2580 C.3          1 MGD1986   0.0000
    14 O3'         30.6230    21.6560     7.0170 O.3          1 MGD1986   0.0000
    15 C2'         30.1820    20.4090     9.0880 C.3          1 MGD1986   0.0000
    16 O2'         31.1050    19.5490     8.3940 O.3          1 MGD1986   0.0000
    17 C1'         30.7840    20.9490    10.3960 C.3          1 MGD1986   0.0000
    18 N9          30.2000    20.2090    11.5400 N.pl3        1 MGD1986   0.0000
    19 C8          28.9060    20.0380    11.8510 C.2          1 MGD1986   0.0000
    20 N7          28.7800    19.3470    12.9900 N.2          1 MGD1986   1.0000
    21 C5          30.0440    19.0910    13.4140 C.2          1 MGD1986   0.0000
    22 C6          30.6210    18.4120    14.4780 C.2          1 MGD1986   0.0000
    23 O6          29.9950    17.8170    15.3640 O.2          1 MGD1986   0.0000
    24 N1          32.0170    18.3910    14.5490 N.pl3        1 MGD1986   0.0000
    25 C2          32.8750    18.9800    13.6080 C.2          1 MGD1986   0.0000
    26 N2          34.2410    18.8880    13.7580 N.pl3        1 MGD1986   0.0000
    27 N3          32.2960    19.6500    12.6020 N.2          1 MGD1986   0.0000
    28 C4          30.9330    19.6840    12.4900 C.2          1 MGD1986   0.0000
    29 C10         29.3280    30.2560     9.8590 C.3          1 MGD1986   0.0000
    30 C11         29.4580    31.7290     9.5590 C.3          1 MGD1986   0.0000
    31 O11         29.4010    31.8860     8.2010 O.3          1 MGD1986   0.0000
    32 C12         28.4430    32.6250    10.2840 C.2          1 MGD1986   0.0000
    33 S12         27.8680    32.2550    11.9040 S.2          1 MGD1986   0.0000
    34 C13         27.9710    33.7520     9.6590 C.2          1 MGD1986   0.0000
    35 S13         26.8490    34.7740    10.4890 S.2          1 MGD1986   0.0000
    36 C14         28.3970    34.0870     8.2710 C.3          1 MGD1986   0.0000
    37 N15         27.2980    33.6360     7.3700 N.pl3        1 MGD1986   0.0000
    38 C16         27.5540    33.2410     6.0430 C.2          1 MGD1986   0.0000
    39 C17         26.5600    32.9600     5.1410 C.2          1 MGD1986   0.0000
    40 O17         25.3490    33.0190     5.4630 O.2          1 MGD1986   0.0000
    41 N18         26.9390    32.5690     3.8410 N.pl3        1 MGD1986   0.0000
    42 C19         28.2370    32.4820     3.4430 C.2          1 MGD1986   0.0000
    43 N19         28.4870    32.0930     2.1770 N.pl3        1 MGD1986   0.0000
    44 N20         29.1800    32.7290     4.3640 N.2          1 MGD1986   0.0000
    45 C21         28.8700    33.1270     5.6080 C.2          1 MGD1986   0.0000
    46 N22         29.8730    33.3890     6.5360 N.pl3        1 MGD1986   0.0000
    47 C23         29.6770    33.2650     7.9510 C.3          1 MGD1986   0.0000
    48 H5'1        29.7361    24.1939     7.8350 H            1 MGD1986   0.0000
    49 H5'2        28.7400    23.7743     9.0592 H            1 MGD1986   0.0000
    50 H4'         31.5236    22.9075     8.8881 H            1 MGD1986   0.0000
    51 H3'         28.9498    21.8349     8.1269 H            1 MGD1986   0.0000
    52 H5          30.2341    20.9481     6.4274 H            1 MGD1986   0.0000
    53 H2'         29.3233    19.9294     9.2686 H            1 MGD1986   0.0000
    54 H7          30.5969    18.9226     7.8029 H            1 MGD1986   0.0000
    55 H1'         31.7820    20.8861    10.3918 H            1 MGD1986   0.0000
    56 H9          28.1405    20.3801    11.3061 H            1 MGD1986   0.0000
    57 H10         34.8475    19.3098    13.0841 H            1 MGD1986   0.0000
    58 H11         34.6263    18.3994    14.5408 H            1 MGD1986   0.0000
    59 H12         29.4071    30.1038    10.8442 H            1 MGD1986   0.0000
    60 H13         28.4402    29.9236     9.5406 H            1 MGD1986   0.0000
    61 H14         30.3703    32.0135     9.8537 H            1 MGD1986   0.0000
    62 H15         28.5645    35.0679     8.1722 H            1 MGD1986   0.0000
    63 H16         26.3598    33.6136     7.7153 H            1 MGD1986   0.0000
    64 H17         26.2214    32.3454     3.1814 H            1 MGD1986   0.0000
    65 H18         29.4304    32.0191     1.8537 H            1 MGD1986   0.0000
    66 H19         27.7291    31.8783     1.5610 H            1 MGD1986   0.0000
    67 H20         30.7704    33.6765     6.2013 H            1 MGD1986   0.0000
    68 H21         30.4691    33.5884     8.4687 H            1 MGD1986   0.0000
    69 H22         32.4345    17.9220    15.3272 H            1 MGD1986   0.0000
    70 H23         27.9283    19.0747    13.4377 H            1 MGD1986   0.0000
@<TRIPOS>BOND
     1    1    2      ar
     2    1    3      ar
     3    1    4       1
     4    1    9       1
     5    4    6       1
     6    5    6       1
     7    5   29       1
     8    6    7      ar
     9    6    8      ar
    10    9   10       1
    11   10   11       1
    12   11   12       1
    13   11   13       1
    14   12   17       1
    15   13   14       1
    16   13   15       1
    17   15   16       1
    18   15   17       1
    19   17   18       1
    20   18   19       1
    21   18   28       1
    22   19   20       2
    23   20   21       1
    24   21   22       1
    25   21   28       2
    26   22   23       2
    27   22   24       1
    28   24   25       1
    29   25   26       1
    30   25   27       2
    31   27   28       1
    32   29   30       1
    33   30   31       1
    34   30   32       1
    35   31   47       1
    36   32   33       2
    37   32   34       1
    38   34   35       2
    39   34   36       1
    40   36   37       1
    41   36   47       1
    42   37   38       1
    43   38   39       1
    44   38   45       2
    45   39   40       2
    46   39   41       1
    47   41   42       1
    48   42   43       1
    49   42   44       2
    50   44   45       1
    51   45   46       1
    52   46   47       1
    53   47   68       1
    54   46   67       1
    55   10   48       1
    56   10   49       1
    57   11   50       1
    58   13   51       1
    59   14   52       1
    60   15   53       1
    61   16   54       1
    62   17   55       1
    63   19   56       1
    64   26   57       1
    65   26   58       1
    66   24   69       1
    67   29   59       1
    68   29   60       1
    69   30   61       1
    70   36   62       1
    71   37   63       1
    72   41   64       1
    73   43   65       1
    74   43   66       1
    75   20   70       1
@<TRIPOS>SUBSTRUCTURE
     1 MGD1986     1 GROUP             4 A     MGD     0 **** MGD A1986
