@<TRIPOS>MOLECULE
3fbs_FAD_2_ligand
   84    89     1     0     0
SMALL
NO_CHARGES


@<TRIPOS>ATOM
     1 PA          59.6220    68.8390    12.7580 P.3          1 FAD298   0.0000
     2 O1A         60.9570    68.9030    12.3460 O.co2        1 FAD298   0.0000
     3 O2A         59.6450    68.4120    14.0870 O.co2        1 FAD298  -1.0000
     4 O5B         58.8660    70.1800    12.6370 O.3          1 FAD298   0.0000
     5 C5B         57.5970    70.4180    13.1360 C.3          1 FAD298   0.0000
     6 C4B         57.2710    71.9010    13.1020 C.3          1 FAD298   0.0000
     7 O4B         55.9060    72.1800    13.2560 O.3          1 FAD298   0.0000
     8 C3B         57.9950    72.5710    14.2410 C.3          1 FAD298   0.0000
     9 O3B         58.6710    73.6890    13.8170 O.3          1 FAD298   0.0000
    10 C2B         56.8860    72.8630    15.2070 C.3          1 FAD298   0.0000
    11 O2B         57.1670    73.9690    15.9780 O.3          1 FAD298   0.0000
    12 C1B         55.7210    73.0960    14.2890 C.3          1 FAD298   0.0000
    13 N9A         54.4420    72.9540    14.9850 N.pl3        1 FAD298   0.0000
    14 C8A         54.0100    71.9470    15.7520 C.2          1 FAD298   0.0000
    15 N7A         52.7930    72.2230    16.1320 N.2          1 FAD298   0.0000
    16 C5A         52.4240    73.3800    15.6700 C.ar         1 FAD298   0.0000
    17 C6A         51.2680    74.1110    15.7900 C.ar         1 FAD298   0.0000
    18 N6A         50.1960    73.5910    16.3120 N.pl3        1 FAD298   0.0000
    19 N1A         51.1760    75.3060    15.1710 N.ar         1 FAD298   0.0000
    20 C2A         52.2380    75.7410    14.4460 C.ar         1 FAD298   0.0000
    21 N3A         53.3720    75.0060    14.3260 N.ar         1 FAD298   0.0000
    22 C4A         53.4580    73.8460    14.9290 C.ar         1 FAD298   0.0000
    23 N1          66.6630    62.7820    10.9240 N.2          1 FAD298   0.0000
    24 C2          67.5830    62.7590     9.9620 C.2          1 FAD298   0.0000
    25 O2          67.2210    62.5410     8.8600 O.2          1 FAD298   0.0000
    26 N3          68.8890    62.9570    10.2530 N.pl3        1 FAD298   0.0000
    27 C4          69.2730    63.2130    11.5080 C.2          1 FAD298   0.0000
    28 O4          70.4180    63.4020    11.7220 O.2          1 FAD298   0.0000
    29 C4X         68.3380    63.2400    12.5060 C.2          1 FAD298   0.0000
    30 N5          68.6840    63.4780    13.7710 N.2          1 FAD298   0.0000
    31 C5X         67.7260    63.4970    14.7250 C.ar         1 FAD298   0.0000
    32 C6          68.0890    63.7360    16.0180 C.ar         1 FAD298   0.0000
    33 C7          67.1390    63.7500    17.0060 C.ar         1 FAD298   0.0000
    34 C7M         67.4970    64.0020    18.4150 C.3          1 FAD298   0.0000
    35 C8          65.8110    63.5220    16.7120 C.ar         1 FAD298   0.0000
    36 C8M         64.8120    63.5370    17.8210 C.3          1 FAD298   0.0000
    37 C9          65.4500    63.2870    15.4110 C.ar         1 FAD298   0.0000
    38 C9A         66.3960    63.2740    14.4200 C.ar         1 FAD298   0.0000
    39 N10         66.0380    63.0300    13.1320 N.pl3        1 FAD298   0.0000
    40 C10         67.0140    63.0130    12.2000 C.2          1 FAD298   0.0000
    41 C1'         64.6370    63.1160    12.6760 C.3          1 FAD298   0.0000
    42 C2'         64.1400    64.4970    12.2960 C.3          1 FAD298   0.0000
    43 O2'         64.2220    65.3780    13.3520 O.3          1 FAD298   0.0000
    44 C3'         62.6930    64.4670    11.7930 C.3          1 FAD298   0.0000
    45 O3'         62.4780    63.4350    10.9140 O.3          1 FAD298   0.0000
    46 C4'         62.2310    65.7330    11.0940 C.3          1 FAD298   0.0000
    47 O4'         62.5270    66.8120    11.8810 O.3          1 FAD298   0.0000
    48 C5'         60.7430    65.7270    10.7980 C.3          1 FAD298   0.0000
    49 O5'         60.3070    66.8800    10.1950 O.3          1 FAD298   0.0000
    50 P           58.8930    67.4520    10.3760 P.3          1 FAD298   0.0000
    51 O1P         58.7820    68.5360     9.5160 O.co2        1 FAD298   0.0000
    52 O2P         57.9260    66.4960    10.0650 O.co2        1 FAD298  -1.0000
    53 O3P         58.7530    67.9080    11.8510 O.3          1 FAD298   0.0000
    54 H5B1        57.5506    70.0941    14.0810 H            1 FAD298   0.0000
    55 H5B2        56.9286    69.9230    12.5808 H            1 FAD298   0.0000
    56 H4B         57.5900    72.2879    12.2368 H            1 FAD298   0.0000
    57 H3B         58.6386    71.9268    14.6543 H            1 FAD298   0.0000
    58 H5          58.0227    74.3420    13.4254 H            1 FAD298   0.0000
    59 H2B         56.7151    72.0684    15.7895 H            1 FAD298   0.0000
    60 H7          56.8213    74.7894    15.5226 H            1 FAD298   0.0000
    61 H1B         55.7843    74.0214    13.9153 H            1 FAD298   0.0000
    62 H8A         54.5289    71.1265    15.9920 H            1 FAD298   0.0000
    63 H6A1        49.3627    74.1380    16.3916 H            1 FAD298   0.0000
    64 H6A2        50.2052    72.6442    16.6337 H            1 FAD298   0.0000
    65 H2A         52.1829    76.6280    13.9875 H            1 FAD298   0.0000
    66 H13         69.5723    62.9116     9.5243 H            1 FAD298   0.0000
    67 H14         69.0487    63.9011    16.2452 H            1 FAD298   0.0000
    68 H7M1        66.6719    63.9717    18.9791 H            1 FAD298   0.0000
    69 H7M2        68.1394    63.3016    18.7261 H            1 FAD298   0.0000
    70 H7M3        67.9224    64.9035    18.4947 H            1 FAD298   0.0000
    71 H8M1        63.9006    63.3569    17.4511 H            1 FAD298   0.0000
    72 H8M2        65.0457    62.8312    18.4897 H            1 FAD298   0.0000
    73 H8M3        64.8205    64.4329    18.2652 H            1 FAD298   0.0000
    74 H21         64.4900    63.1240    15.1835 H            1 FAD298   0.0000
    75 H1'1        64.0546    62.7745    13.4137 H            1 FAD298   0.0000
    76 H1'2        64.5403    62.5258    11.8746 H            1 FAD298   0.0000
    77 H2'         64.7185    64.8429    11.5573 H            1 FAD298   0.0000
    78 H25         63.4985    66.0635    13.2711 H            1 FAD298   0.0000
    79 H3'         62.0987    64.3219    12.5840 H            1 FAD298   0.0000
    80 H27         61.5271    63.1327    10.9810 H            1 FAD298   0.0000
    81 H4'         62.7282    65.8211    10.2308 H            1 FAD298   0.0000
    82 H29         61.6837    67.2970    12.1125 H            1 FAD298   0.0000
    83 H5'1        60.2481    65.6121    11.6593 H            1 FAD298   0.0000
    84 H5'2        60.5424    64.9565    10.1929 H            1 FAD298   0.0000
@<TRIPOS>BOND
     1    1    2      ar
     2    1    3      ar
     3    1    4       1
     4    1   53       1
     5    4    5       1
     6    5    6       1
     7    6    7       1
     8    6    8       1
     9    7   12       1
    10    8    9       1
    11    8   10       1
    12   10   11       1
    13   10   12       1
    14   12   13       1
    15   13   14       1
    16   13   22       1
    17   14   15       2
    18   15   16       1
    19   16   17      ar
    20   16   22      ar
    21   17   18       1
    22   17   19      ar
    23   19   20      ar
    24   20   21      ar
    25   21   22      ar
    26   23   24       1
    27   23   40       2
    28   24   25       2
    29   24   26       1
    30   26   27       1
    31   27   28       2
    32   27   29       1
    33   29   30       2
    34   29   40       1
    35   30   31       1
    36   31   32      ar
    37   31   38      ar
    38   32   33      ar
    39   33   34       1
    40   33   35      ar
    41   35   36       1
    42   35   37      ar
    43   37   38      ar
    44   38   39       1
    45   39   40       1
    46   39   41       1
    47   41   42       1
    48   42   43       1
    49   42   44       1
    50   44   45       1
    51   44   46       1
    52   46   47       1
    53   46   48       1
    54   48   49       1
    55   49   50       1
    56   50   51      ar
    57   50   52      ar
    58   50   53       1
    59   48   84       1
    60    5   54       1
    61    5   55       1
    62    6   56       1
    63    8   57       1
    64    9   58       1
    65   10   59       1
    66   11   60       1
    67   12   61       1
    68   14   62       1
    69   18   63       1
    70   18   64       1
    71   20   65       1
    72   26   66       1
    73   32   67       1
    74   34   68       1
    75   34   69       1
    76   34   70       1
    77   36   71       1
    78   36   72       1
    79   36   73       1
    80   37   74       1
    81   41   75       1
    82   41   76       1
    83   42   77       1
    84   43   78       1
    85   44   79       1
    86   45   80       1
    87   46   81       1
    88   47   82       1
    89   48   83       1
@<TRIPOS>SUBSTRUCTURE
     1 FAD298      1 GROUP             4 B     FAD     0 **** FAD B 298
