@<TRIPOS>MOLECULE
2bhp_NAD_1_ligand
   71    75     1     0     0
SMALL
NO_CHARGES


@<TRIPOS>ATOM
     1 C5B         11.5710    31.5550    93.1020 C.3          1 NAD1517   0.0000
     2 C4B         11.3410    30.0760    93.3670 C.3          1 NAD1517   0.0000
     3 O4B         10.3320    29.9690    94.3980 O.3          1 NAD1517   0.0000
     4 C3B         10.8420    29.1950    92.1950 C.3          1 NAD1517   0.0000
     5 O3B         11.4000    27.8930    92.3990 O.3          1 NAD1517   0.0000
     6 C2B          9.3030    29.1840    92.4410 C.3          1 NAD1517   0.0000
     7 O2B          8.6350    28.0800    91.8720 O.3          1 NAD1517   0.0000
     8 C1B          9.2600    29.1750    93.9840 C.3          1 NAD1517   0.0000
     9 N9A          8.0820    29.7710    94.6190 N.pl3        1 NAD1517   0.0000
    10 C8A          7.1590    30.6740    94.1490 C.2          1 NAD1517   0.0000
    11 N7A          6.2240    30.9850    95.0170 N.2          1 NAD1517   0.0000
    12 C5A          6.5500    30.2270    96.1300 C.ar         1 NAD1517   0.0000
    13 C6A          5.9680    30.0840    97.4340 C.ar         1 NAD1517   0.0000
    14 N6A          4.8730    30.7300    97.8410 N.pl3        1 NAD1517   0.0000
    15 N1A          6.5690    29.2220    98.3160 N.ar         1 NAD1517   1.0000
    16 C2A          7.6840    28.5420    97.9470 C.ar         1 NAD1517   0.0000
    17 N3A          8.3230    28.6030    96.7640 N.ar         1 NAD1517   0.0000
    18 C4A          7.6930    29.4630    95.8970 C.ar         1 NAD1517   0.0000
    19 PA          10.3070    33.7520    92.4890 P.3          1 NAD1517   0.0000
    20 O1A         10.3990    34.2680    93.8820 O.co2        1 NAD1517   0.0000
    21 O2A          9.0660    34.1700    91.7790 O.co2        1 NAD1517  -1.0000
    22 O5B         10.3790    32.1570    92.5570 O.3          1 NAD1517   0.0000
    23 O3          11.5900    34.2210    91.6460 O.3          1 NAD1517   0.0000
    24 PN          12.1010    34.0490    90.1580 P.3          1 NAD1517   0.0000
    25 O1N         11.2630    34.8930    89.2600 O.co2        1 NAD1517   0.0000
    26 O2N         12.2650    32.5890    89.9010 O.co2        1 NAD1517  -1.0000
    27 O5D         13.5730    34.6450    90.3550 O.3          1 NAD1517   0.0000
    28 C5D         13.8220    36.0610    90.1340 C.3          1 NAD1517   0.0000
    29 C4D         13.9640    36.7300    91.4790 C.3          1 NAD1517   0.0000
    30 O4D         15.0550    36.0980    92.1930 O.3          1 NAD1517   0.0000
    31 C3D         14.2980    38.2330    91.4060 C.3          1 NAD1517   0.0000
    32 O3D         13.6160    39.0040    92.3870 O.3          1 NAD1517   0.0000
    33 C2D         15.8000    38.2530    91.7410 C.3          1 NAD1517   0.0000
    34 O2D         16.2720    39.4610    92.2820 O.3          1 NAD1517   0.0000
    35 C1D         15.9180    37.0570    92.6880 C.3          1 NAD1517   0.0000
    36 N1N         17.3010    36.4760    92.7320 N.ar         1 NAD1517   1.0000
    37 C2N         18.0340    36.7520    93.8540 C.ar         1 NAD1517   0.0000
    38 C3N         19.3940    36.3980    93.8990 C.ar         1 NAD1517   0.0000
    39 C7N         20.2610    36.6730    95.1080 C.2          1 NAD1517   0.0000
    40 O7N         21.3280    36.0540    95.2170 O.2          1 NAD1517   0.0000
    41 N7N         19.8530    37.5680    96.0030 N.am         1 NAD1517   0.0000
    42 C4N         19.9550    35.7370    92.7670 C.ar         1 NAD1517   0.0000
    43 C5N         19.1210    35.3010    91.7110 C.ar         1 NAD1517   0.0000
    44 C6N         17.7910    35.6920    91.6940 C.ar         1 NAD1517   0.0000
    45 H5B1        12.3217    31.6605    92.4498 H            1 NAD1517   0.0000
    46 H5B2        11.8082    32.0109    93.9598 H            1 NAD1517   0.0000
    47 H4B         12.1914    29.6828    93.7166 H            1 NAD1517   0.0000
    48 H3B         11.0823    29.5767    91.3025 H            1 NAD1517   0.0000
    49 H5          12.3981    27.9545    92.4000 H            1 NAD1517   0.0000
    50 H2B          8.9015    30.0333    92.0982 H            1 NAD1517   0.0000
    51 H7           8.7740    28.0805    90.8817 H            1 NAD1517   0.0000
    52 H1B          9.3852    28.2408    94.3181 H            1 NAD1517   0.0000
    53 H8A          7.1961    31.0602    93.2273 H            1 NAD1517   0.0000
    54 H6A1         4.5204    30.5833    98.7652 H            1 NAD1517   0.0000
    55 H6A2         4.4053    31.3606    97.2217 H            1 NAD1517   0.0000
    56 H2A          8.0749    27.9262    98.6311 H            1 NAD1517   0.0000
    57 H5D1        13.0563    36.4654    89.6339 H            1 NAD1517   0.0000
    58 H5D2        14.6636    36.1785    89.6069 H            1 NAD1517   0.0000
    59 H4D         13.1178    36.6069    91.9975 H            1 NAD1517   0.0000
    60 H3D         14.1310    38.5928    90.4880 H            1 NAD1517   0.0000
    61 H17         13.8709    39.9662    92.2912 H            1 NAD1517   0.0000
    62 H2D         16.3158    38.0529    90.9080 H            1 NAD1517   0.0000
    63 H19         15.7273    40.2207    91.9267 H            1 NAD1517   0.0000
    64 H1D         15.6340    37.3250    93.6086 H            1 NAD1517   0.0000
    65 H2N         17.6052    37.2026    94.6370 H            1 NAD1517   0.0000
    66 H7N1        20.4139    37.7618    96.8079 H            1 NAD1517   0.0000
    67 H7N2        18.9853    38.0472    95.8711 H            1 NAD1517   0.0000
    68 H4N         20.9416    35.5811    92.7195 H            1 NAD1517   0.0000
    69 H5N         19.4863    34.7178    90.9855 H            1 NAD1517   0.0000
    70 H6N         17.1913    35.4133    90.9439 H            1 NAD1517   0.0000
    71 H1A          6.1855    29.0948    99.2307 H            1 NAD1517   0.0000
@<TRIPOS>BOND
     1    1    2       1
     2    1   22       1
     3    2    3       1
     4    2    4       1
     5    3    8       1
     6    4    5       1
     7    4    6       1
     8    6    7       1
     9    6    8       1
    10    8    9       1
    11    9   10       1
    12    9   18       1
    13   10   11       2
    14   11   12       1
    15   12   13      ar
    16   12   18      ar
    17   13   14       1
    18   13   15      ar
    19   15   16      ar
    20   16   17      ar
    21   17   18      ar
    22   19   20      ar
    23   19   21      ar
    24   19   22       1
    25   19   23       1
    26   23   24       1
    27   24   25      ar
    28   24   26      ar
    29   24   27       1
    30   27   28       1
    31   28   29       1
    32   29   30       1
    33   29   31       1
    34   30   35       1
    35   31   32       1
    36   31   33       1
    37   33   34       1
    38   33   35       1
    39   35   36       1
    40   36   37      ar
    41   36   44      ar
    42   37   38      ar
    43   38   39       1
    44   38   42      ar
    45   39   40       2
    46   39   41      am
    47   42   43      ar
    48   43   44      ar
    49    1   45       1
    50    1   46       1
    51    2   47       1
    52    4   48       1
    53    5   49       1
    54    6   50       1
    55    7   51       1
    56    8   52       1
    57   10   53       1
    58   14   54       1
    59   14   55       1
    60   16   56       1
    61   44   70       1
    62   43   69       1
    63   28   57       1
    64   28   58       1
    65   29   59       1
    66   31   60       1
    67   32   61       1
    68   33   62       1
    69   34   63       1
    70   35   64       1
    71   37   65       1
    72   41   66       1
    73   41   67       1
    74   42   68       1
    75   15   71       1
@<TRIPOS>SUBSTRUCTURE
     1 NAD1517     1 GROUP             4 A     NAD     0 **** NAD A1517
