@<TRIPOS>MOLECULE
4b4g_KKT_2_ligand
   47    48     1     0     0
SMALL
NO_CHARGES


@<TRIPOS>ATOM
     1 CAW         34.5830   -23.7890    56.9570 C.ar         1 KKT400   0.0000
     2 CAX         34.0000   -24.8590    56.2370 C.ar         1 KKT400   0.0000
     3 CBA         33.6850   -24.7290    54.8690 C.ar         1 KKT400   0.0000
     4 CAZ         33.9660   -23.5240    54.2250 C.ar         1 KKT400   0.0000
     5 CAY         34.5640   -22.4690    54.9570 C.ar         1 KKT400   0.0000
     6 CAV         34.8750   -22.5780    56.3220 C.ar         1 KKT400   0.0000
     7 CAU         35.4790   -21.5520    57.0390 C.3          1 KKT400   0.0000
     8 NAN         34.6820   -20.3200    57.0290 N.pl3        1 KKT400   0.0000
     9 CAO         33.7810   -20.0480    58.0190 C.2          1 KKT400   0.0000
    10 NAP         33.5400   -20.8490    59.0430 N.pl3        1 KKT400   0.0000
    11 CAM         34.8720   -19.4580    56.0310 C.2          1 KKT400   0.0000
    12 OAL         35.7000   -19.7100    55.1850 O.2          1 KKT400   0.0000
    13 NAD         34.1590   -18.2520    55.9330 N.pl3        1 KKT400   0.0000
    14 CAE         33.1870   -17.9610    56.9170 C.2          1 KKT400   0.0000
    15 OAA         32.5460   -16.9170    56.7870 O.2          1 KKT400   0.0000
    16 CAF         33.0050   -18.8950    57.9750 C.2          1 KKT400   0.0000
    17 NAG         32.1640   -18.6610    58.9820 N.pl3        1 KKT400   0.0000
    18 CAB         32.6380   -17.7940    60.0360 C.3          1 KKT400   0.0000
    19 SAH         30.5950   -19.0470    58.9210 S.o2         1 KKT400   0.0000
    20 OAC         30.3610   -20.5510    58.6870 O.2          1 KKT400   0.0000
    21 OAQ         30.0030   -18.6930    60.2950 O.2          1 KKT400   0.0000
    22 CAI         29.9920   -17.8760    57.6670 C.3          1 KKT400   0.0000
    23 CAJ         28.5140   -17.9900    57.4770 C.3          1 KKT400   0.0000
    24 CAK         28.1630   -16.9060    56.4490 C.3          1 KKT400   0.0000
    25 CAT         27.9200   -17.6570    55.1900 C.3          1 KKT400   0.0000
    26 HAW         34.7881   -23.9002    57.9294 H            1 KKT400   0.0000
    27 HAX         33.8084   -25.7211    56.7062 H            1 KKT400   0.0000
    28 HBA         33.2673   -25.4876    54.3689 H            1 KKT400   0.0000
    29 HAZ         33.7475   -23.4061    53.2563 H            1 KKT400   0.0000
    30 HAY         34.7728   -21.6134    54.4833 H            1 KKT400   0.0000
    31 HAU1        36.3729   -21.3598    56.6340 H            1 KKT400   0.0000
    32 HAU2        35.5992   -21.8493    57.9862 H            1 KKT400   0.0000
    33 HAP1        32.8658   -20.5882    59.7340 H            1 KKT400   0.0000
    34 HAP2        34.0319   -21.7156    59.1265 H            1 KKT400   0.0000
    35 HAD         34.3351   -17.6135    55.1838 H            1 KKT400   0.0000
    36 HAB1        31.9256   -17.6934    60.7305 H            1 KKT400   0.0000
    37 HAB2        33.4556   -18.1917    60.4523 H            1 KKT400   0.0000
    38 HAB3        32.8608   -16.8968    59.6547 H            1 KKT400   0.0000
    39 HAI1        30.4472   -18.0680    56.7975 H            1 KKT400   0.0000
    40 HAI2        30.2112   -16.9452    57.9595 H            1 KKT400   0.0000
    41 HAJ1        28.0348   -17.8256    58.3392 H            1 KKT400   0.0000
    42 HAJ2        28.2729   -18.8960    57.1291 H            1 KKT400   0.0000
    43 HAK1        28.9220   -16.2645    56.3377 H            1 KKT400   0.0000
    44 HAK2        27.3426   -16.4065    56.7273 H            1 KKT400   0.0000
    45 HAT1        27.6824   -17.0161    54.4601 H            1 KKT400   0.0000
    46 HAT2        28.7468   -18.1592    54.9365 H            1 KKT400   0.0000
    47 HAT3        27.1673   -18.3012    55.3261 H            1 KKT400   0.0000
@<TRIPOS>BOND
     1    1    2      ar
     2    1    6      ar
     3    2    3      ar
     4    3    4      ar
     5    4    5      ar
     6    5    6      ar
     7    6    7       1
     8    7    8       1
     9    8    9       1
    10    8   11       1
    11    9   10       1
    12    9   16       2
    13   11   12       2
    14   11   13       1
    15   13   14       1
    16   14   15       2
    17   14   16       1
    18   16   17       1
    19   17   18       1
    20   17   19       1
    21   19   20       2
    22   19   21       2
    23   19   22       1
    24   22   23       1
    25   23   24       1
    26   24   25       1
    27    1   26       1
    28    2   27       1
    29    3   28       1
    30    4   29       1
    31    5   30       1
    32    7   31       1
    33    7   32       1
    34   10   33       1
    35   10   34       1
    36   13   35       1
    37   18   36       1
    38   18   37       1
    39   18   38       1
    40   22   39       1
    41   22   40       1
    42   23   41       1
    43   23   42       1
    44   24   43       1
    45   24   44       1
    46   25   45       1
    47   25   46       1
    48   25   47       1
@<TRIPOS>SUBSTRUCTURE
     1 KKT400      1 GROUP             4 B     KKT     0 **** KKT B 400
