@<TRIPOS>MOLECULE
4a0r_DTB_2_ligand
   32    32     1     0     0
SMALL
NO_CHARGES


@<TRIPOS>ATOM
     1 CN          -4.8110    16.8050    22.1600 C.2          1 DTB1808   0.0000
     2 O           -4.9130    17.9800    21.8650 O.2          1 DTB1808   0.0000
     3 N2          -4.9350    15.8000    21.3150 N.am         1 DTB1808   0.0000
     4 CR          -4.2740    14.6250    21.8640 C.3          1 DTB1808   0.0000
     5 CS          -4.4180    14.8980    23.3600 C.3          1 DTB1808   0.0000
     6 N1          -4.5220    16.3500    23.3670 N.am         1 DTB1808   0.0000
     7 CT          -5.6820    14.2680    23.9160 C.3          1 DTB1808   0.0000
     8 CE          -5.0570    13.4320    21.3710 C.3          1 DTB1808   0.0000
     9 CD          -4.4260    13.0260    20.0440 C.3          1 DTB1808   0.0000
    10 CG          -3.5660    11.7870    20.2200 C.3          1 DTB1808   0.0000
    11 CB          -3.6150    10.8460    19.0160 C.3          1 DTB1808   0.0000
    12 CA          -2.9630     9.5430    19.4460 C.3          1 DTB1808   0.0000
    13 C           -2.4410     8.6720    18.3230 C.2          1 DTB1808   0.0000
    14 OI1         -3.0490     7.6280    17.9750 O.co2        1 DTB1808   0.0000
    15 OI2         -1.3790     9.0160    17.8090 O.co2        1 DTB1808  -1.0000
    16 H1          -5.4088    15.8391    20.4352 H            1 DTB1808   0.0000
    17 HR          -3.3142    14.5775    21.5874 H            1 DTB1808   0.0000
    18 HS          -3.6099    14.5911    23.8628 H            1 DTB1808   0.0000
    19 H4          -4.3925    16.9249    24.1749 H            1 DTB1808   0.0000
    20 HT1         -5.7490    14.4630    24.8945 H            1 DTB1808   0.0000
    21 HT2         -6.4785    14.6474    23.4452 H            1 DTB1808   0.0000
    22 HT3         -5.6513    13.2785    23.7746 H            1 DTB1808   0.0000
    23 HE1         -6.0167    13.6789    21.2370 H            1 DTB1808   0.0000
    24 HE2         -4.9946    12.6810    22.0284 H            1 DTB1808   0.0000
    25 HD1         -3.8570    13.7762    19.7072 H            1 DTB1808   0.0000
    26 HD2         -5.1495    12.8328    19.3812 H            1 DTB1808   0.0000
    27 HG1         -3.8863    11.2893    21.0260 H            1 DTB1808   0.0000
    28 HG2         -2.6186    12.0747    20.3606 H            1 DTB1808   0.0000
    29 HB1         -3.1135    11.2442    18.2479 H            1 DTB1808   0.0000
    30 HB2         -4.5639    10.6827    18.7458 H            1 DTB1808   0.0000
    31 HA1         -3.6405     9.0136    19.9567 H            1 DTB1808   0.0000
    32 HA2         -2.1941     9.7665    20.0450 H            1 DTB1808   0.0000
@<TRIPOS>BOND
     1    1    2       2
     2    1    3      am
     3    1    6      am
     4    3    4       1
     5    4    5       1
     6    4    8       1
     7    5    6       1
     8    5    7       1
     9    8    9       1
    10    9   10       1
    11   10   11       1
    12   11   12       1
    13   12   13       1
    14   13   14      ar
    15   13   15      ar
    16    3   16       1
    17    4   17       1
    18    5   18       1
    19    6   19       1
    20    7   20       1
    21    7   21       1
    22    7   22       1
    23    8   23       1
    24    8   24       1
    25    9   25       1
    26    9   26       1
    27   10   27       1
    28   10   28       1
    29   11   29       1
    30   11   30       1
    31   12   31       1
    32   12   32       1
@<TRIPOS>SUBSTRUCTURE
     1 DTB1808     1 GROUP             4 B     DTB     0 **** DTB B1808
