@<TRIPOS>MOLECULE
4ig8_DTP_1_ligand
   42    44     1     0     0
SMALL
NO_CHARGES


@<TRIPOS>ATOM
     1 PG          22.8780    -0.2280    21.8790 P.3          1 DTP403   0.0000
     2 O1G         22.2990     0.8300    22.7520 O.co2        1 DTP403   0.0000
     3 O2G         24.3640    -0.4290    22.2020 O.co2        1 DTP403  -1.0000
     4 O3G         22.1270    -1.5430    22.1420 O.co2        1 DTP403  -1.0000
     5 PB          21.9890     1.4880    20.0030 P.3          1 DTP403   0.0000
     6 O1B         21.5510     2.2850    21.2810 O.co2        1 DTP403   0.0000
     7 O2B         20.7920     1.1530    19.2120 O.co2        1 DTP403  -1.0000
     8 O3B         22.7090     0.1710    20.3950 O.3          1 DTP403   0.0000
     9 PA          24.1460     3.2590    19.8190 P.3          1 DTP403   0.0000
    10 O1A         23.7050     4.7550    19.8520 O.co2        1 DTP403   0.0000
    11 O2A         24.4140     2.7810    21.2570 O.co2        1 DTP403  -1.0000
    12 O3A         22.9680     2.3860    19.1270 O.3          1 DTP403   0.0000
    13 O5'         25.4340     3.1370    18.9340 O.3          1 DTP403   0.0000
    14 C5'         26.6550     2.8290    19.4730 C.3          1 DTP403   0.0000
    15 C4'         27.7490     2.7320    18.5370 C.3          1 DTP403   0.0000
    16 O4'         27.2150     2.4300    17.2660 O.3          1 DTP403   0.0000
    17 C3'         28.4520     4.0380    18.4080 C.3          1 DTP403   0.0000
    18 O3'         29.6840     4.0140    19.1150 O.3          1 DTP403   0.0000
    19 C2'         28.7170     4.1990    17.0260 C.3          1 DTP403   0.0000
    20 C1'         27.9110     3.1670    16.3080 C.3          1 DTP403   0.0000
    21 N9          27.0310     3.7700    15.3380 N.pl3        1 DTP403   0.0000
    22 C8          25.7750     4.1820    15.5190 C.2          1 DTP403   0.0000
    23 N7          25.3050     4.6930    14.3440 N.2          1 DTP403   0.0000
    24 C5          26.2900     4.5970    13.4140 C.ar         1 DTP403   0.0000
    25 C6          26.4110     4.9470    12.0400 C.ar         1 DTP403   0.0000
    26 N6          25.3140     5.5520    11.3460 N.pl3        1 DTP403   0.0000
    27 N1          27.5790     4.7020    11.3910 N.ar         1 DTP403   0.0000
    28 C2          28.6350     4.1310    12.0210 C.ar         1 DTP403   0.0000
    29 N3          28.5550     3.7900    13.3110 N.ar         1 DTP403   0.0000
    30 C4          27.3910     4.0130    14.0310 C.ar         1 DTP403   0.0000
    31 H5'1        26.5711     1.9482    19.9391 H            1 DTP403   0.0000
    32 H5'2        26.8837     3.5384    20.1396 H            1 DTP403   0.0000
    33 H4'         28.3894     2.0193    18.8233 H            1 DTP403   0.0000
    34 H3'         27.8722     4.7814    18.7415 H            1 DTP403   0.0000
    35 H5          30.1416     4.8978    19.0174 H            1 DTP403   0.0000
    36 H2'1        29.6909     4.0628    16.8442 H            1 DTP403   0.0000
    37 H2'2        28.4472     5.1147    16.7283 H            1 DTP403   0.0000
    38 H1'         28.5375     2.5523    15.8288 H            1 DTP403   0.0000
    39 H9          25.2619     4.1256    16.3755 H            1 DTP403   0.0000
    40 H10         25.4063     5.7953    10.3804 H            1 DTP403   0.0000
    41 H11         24.4558     5.7312    11.8270 H            1 DTP403   0.0000
    42 H12         29.4816     3.9634    11.5159 H            1 DTP403   0.0000
@<TRIPOS>BOND
     1    1    2      ar
     2    1    3      ar
     3    1    4      ar
     4    1    8       1
     5    5    6      ar
     6    5    7      ar
     7    5    8       1
     8    5   12       1
     9    9   10      ar
    10    9   11      ar
    11    9   12       1
    12    9   13       1
    13   13   14       1
    14   14   15       1
    15   15   16       1
    16   15   17       1
    17   16   20       1
    18   17   18       1
    19   17   19       1
    20   19   20       1
    21   20   21       1
    22   21   22       1
    23   21   30       1
    24   22   23       2
    25   23   24       1
    26   24   25      ar
    27   24   30      ar
    28   25   26       1
    29   25   27      ar
    30   27   28      ar
    31   28   29      ar
    32   29   30      ar
    33   28   42       1
    34   26   41       1
    35   26   40       1
    36   22   39       1
    37   14   31       1
    38   14   32       1
    39   15   33       1
    40   17   34       1
    41   18   35       1
    42   19   36       1
    43   19   37       1
    44   20   38       1
@<TRIPOS>SUBSTRUCTURE
     1 DTP403      1 GROUP             4 A     DTP     0 **** DTP A 403
