@<TRIPOS>MOLECULE
3mes_PT3_1_ligand
   25    24     1     0     0
SMALL
NO_CHARGES


@<TRIPOS>ATOM
     1 O1          14.0030    -0.0950    39.7940 O.co2        1 PT3428   0.0000
     2 O11         15.9190     1.0330    39.6050 O.co2        1 PT3428  -1.0000
     3 C1          14.8080     0.6440    39.1820 C.2          1 PT3428   0.0000
     4 C2          14.3980     1.1110    37.7830 C.3          1 PT3428   0.0000
     5 O2          15.5200     1.6970    37.1190 O.3          1 PT3428   0.0000
     6 C3          13.2860     2.1520    37.8890 C.3          1 PT3428   0.0000
     7 O3          13.7350     3.2380    38.7070 O.3          1 PT3428   0.0000
     8 C4          12.9390     2.6530    36.4790 C.2          1 PT3428   0.0000
     9 O41         12.4300     1.9000    35.6500 O.2          1 PT3428   0.0000
    10 N4          13.2380     3.9260    36.2300 N.am         1 PT3428   0.0000
    11 C41         13.8520     4.8080    37.2320 C.3          1 PT3428   0.0000
    12 C42         14.2440     6.1350    36.5700 C.3          1 PT3428   0.0000
    13 C43         13.0370     7.0740    36.4580 C.3          1 PT3428   0.0000
    14 H1          14.0707     0.3280    37.2541 H            1 PT3428   0.0000
    15 H2          15.7161     1.1861    36.2820 H            1 PT3428   0.0000
    16 H3          12.4770     1.7348    38.3032 H            1 PT3428   0.0000
    17 H4          13.1335     3.3283    39.5007 H            1 PT3428   0.0000
    18 H5          13.0364     4.2974    35.3237 H            1 PT3428   0.0000
    19 H6          14.6679     4.3688    37.6080 H            1 PT3428   0.0000
    20 H7          13.1982     4.9827    37.9682 H            1 PT3428   0.0000
    21 H8          14.6002     5.9503    35.6540 H            1 PT3428   0.0000
    22 H9          14.9522     6.5777    37.1200 H            1 PT3428   0.0000
    23 H10         13.3194     7.9295    36.0241 H            1 PT3428   0.0000
    24 H11         12.3262     6.6387    35.9054 H            1 PT3428   0.0000
    25 H12         12.6782     7.2661    37.3714 H            1 PT3428   0.0000
@<TRIPOS>BOND
     1    1    3      ar
     2    2    3      ar
     3    3    4       1
     4    4    5       1
     5    4    6       1
     6    6    7       1
     7    6    8       1
     8    8    9       2
     9    8   10      am
    10   10   11       1
    11   11   12       1
    12   12   13       1
    13   13   25       1
    14    4   14       1
    15    5   15       1
    16    6   16       1
    17    7   17       1
    18   10   18       1
    19   11   19       1
    20   11   20       1
    21   12   21       1
    22   12   22       1
    23   13   23       1
    24   13   24       1
@<TRIPOS>SUBSTRUCTURE
     1 PT3428      1 GROUP             4 A     PT3     0 **** PT3 A 428
