@<TRIPOS>MOLECULE
3krw_BA1_1_ligand
   66    69     1     0     0
SMALL
NO_CHARGES


@<TRIPOS>ATOM
     1 C1'         34.9900    -3.2640    51.2520 C.2          1 BA1690   0.0000
     2 C2'         34.5380    -1.8230    51.3040 C.ar         1 BA1690   0.0000
     3 C3'         35.4350    -0.8360    51.7090 C.ar         1 BA1690   0.0000
     4 C4'         35.0470     0.5000    51.7610 C.ar         1 BA1690   0.0000
     5 C5'         33.7560     0.8630    51.4060 C.ar         1 BA1690   0.0000
     6 O5'         33.3730     2.1620    51.4540 O.3          1 BA1690   0.0000
     7 C6'         32.8540    -0.1090    50.9980 C.ar         1 BA1690   0.0000
     8 C7'         33.2410    -1.4430    50.9470 C.ar         1 BA1690   0.0000
     9 O1'         36.1350    -3.5390    51.5650 O.2          1 BA1690   0.0000
    10 N1'         34.1600    -4.2320    50.8670 N.am         1 BA1690   0.0000
    11 N1          35.4330    -7.2280    49.1890 N.4          1 BA1690   1.0000
    12 C2          34.7370    -5.9670    49.3300 C.3          1 BA1690   0.0000
    13 C3          34.5750    -5.6160    50.8040 C.3          1 BA1690   0.0000
    14 C4          33.5910    -6.4640    51.6130 C.3          1 BA1690   0.0000
    15 C5          33.0280    -7.7090    50.9190 C.3          1 BA1690   0.0000
    16 C6          34.0940    -8.7450    50.5660 C.3          1 BA1690   0.0000
    17 C7          34.7010    -8.4770    49.1960 C.3          1 BA1690   0.0000
    18 OAC         34.3310    -6.8640    52.7610 O.3          1 BA1690   0.0000
    19 C1B         33.6790    -6.8710    54.0600 C.2          1 BA1690   0.0000
    20 OBC         32.5240    -6.5160    54.2190 O.2          1 BA1690   0.0000
    21 C2B         34.5130    -7.3910    55.1840 C.ar         1 BA1690   0.0000
    22 C3B         34.0070    -7.4590    56.4840 C.ar         1 BA1690   0.0000
    23 C4B         34.7910    -7.9580    57.5180 C.ar         1 BA1690   0.0000
    24 O4'         34.3030    -8.0240    58.7850 O.3          1 BA1690   0.0000
    25 C5B         36.1690    -8.4190    57.2210 C.ar         1 BA1690   0.0000
    26 C6B         36.6520    -8.3290    55.8190 C.ar         1 BA1690   0.0000
    27 O6'         37.8940    -8.7280    55.4390 O.3          1 BA1690   0.0000
    28 C7B         35.8030    -7.8170    54.8600 C.ar         1 BA1690   0.0000
    29 C8'         37.0250    -8.9810    58.3110 C.2          1 BA1690   0.0000
    30 O8'         36.6060    -9.0570    59.4510 O.2          1 BA1690   0.0000
    31 C9'         38.3870    -9.4830    57.9550 C.ar         1 BA1690   0.0000
    32 CXU         39.5330    -8.5650    58.1070 C.ar         1 BA1690   0.0000
    33 OXU         39.3330    -7.3070    58.5880 O.3          1 BA1690   0.0000
    34 CX4         40.8010    -9.0160    57.7640 C.ar         1 BA1690   0.0000
    35 CXE         41.0020   -10.3110    57.2720 C.ar         1 BA1690   0.0000
    36 CXO         39.9490   -11.2140    57.1030 C.ar         1 BA1690   0.0000
    37 CXY         38.6370   -10.8540    57.4200 C.ar         1 BA1690   0.0000
    38 CX8         37.5180   -11.8370    57.2250 C.2          1 BA1690   0.0000
    39 OX8         37.7690   -12.9760    56.7780 O.co2        1 BA1690   0.0000
    40 OXI         36.3510   -11.5020    57.5110 O.co2        1 BA1690  -1.0000
    41 H3'         36.3676    -1.0904    51.9651 H            1 BA1690   0.0000
    42 H4'         35.6995     1.1986    52.0545 H            1 BA1690   0.0000
    43 H5'         34.0222     2.8642    51.7464 H            1 BA1690   0.0000
    44 H6'         31.9234     0.1507    50.7401 H            1 BA1690   0.0000
    45 H7'         32.5851    -2.1378    50.6520 H            1 BA1690   0.0000
    46 H1'         33.2221    -3.9947    50.6140 H            1 BA1690   0.0000
    47 H7          36.0909    -7.2775    49.9405 H            1 BA1690   0.0000
    48 H8          33.8339    -6.0392    48.9066 H            1 BA1690   0.0000
    49 H9          35.2618    -5.2476    48.8751 H            1 BA1690   0.0000
    50 H10         35.4729    -5.6882    51.2381 H            1 BA1690   0.0000
    51 H11         32.8298    -5.8850    51.9050 H            1 BA1690   0.0000
    52 H12         32.5733    -7.4228    50.0756 H            1 BA1690   0.0000
    53 H13         32.3607    -8.1367    51.5288 H            1 BA1690   0.0000
    54 H14         33.6761    -9.6535    50.5641 H            1 BA1690   0.0000
    55 H15         34.8187    -8.7129    51.2543 H            1 BA1690   0.0000
    56 H16         35.3248    -9.2231    48.9629 H            1 BA1690   0.0000
    57 H17         33.9684    -8.4306    48.5170 H            1 BA1690   0.0000
    58 H3B         33.0757    -7.1471    56.6721 H            1 BA1690   0.0000
    59 H19         34.8740    -8.3844    59.5226 H            1 BA1690   0.0000
    60 H20         38.1741    -8.6477    54.4824 H            1 BA1690   0.0000
    61 H7B         36.1177    -7.7494    53.9132 H            1 BA1690   0.0000
    62 HXU         40.1071    -6.6826    58.6922 H            1 BA1690   0.0000
    63 HX4         41.5849    -8.4043    57.8705 H            1 BA1690   0.0000
    64 HXE         41.9294   -10.5993    57.0337 H            1 BA1690   0.0000
    65 HXO         40.1373   -12.1306    56.7503 H            1 BA1690   0.0000
    66 H26         35.9236    -7.1885    48.3185 H            1 BA1690   0.0000
@<TRIPOS>BOND
     1    1    2       1
     2    1    9       2
     3    1   10      am
     4    2    3      ar
     5    2    8      ar
     6    3    4      ar
     7    4    5      ar
     8    5    6       1
     9    5    7      ar
    10    7    8      ar
    11   10   13       1
    12   11   12       1
    13   11   17       1
    14   12   13       1
    15   13   14       1
    16   14   15       1
    17   14   18       1
    18   15   16       1
    19   16   17       1
    20   18   19       1
    21   19   20       2
    22   19   21       1
    23   21   22      ar
    24   21   28      ar
    25   22   23      ar
    26   23   24       1
    27   23   25      ar
    28   25   26      ar
    29   25   29       1
    30   26   27       1
    31   26   28      ar
    32   29   30       2
    33   29   31       1
    34   31   32      ar
    35   31   37      ar
    36   32   33       1
    37   32   34      ar
    38   34   35      ar
    39   35   36      ar
    40   36   37      ar
    41   37   38       1
    42   38   39      ar
    43   38   40      ar
    44    3   41       1
    45    4   42       1
    46    6   43       1
    47    7   44       1
    48    8   45       1
    49   10   46       1
    50   11   47       1
    51   12   48       1
    52   12   49       1
    53   13   50       1
    54   14   51       1
    55   15   52       1
    56   15   53       1
    57   16   54       1
    58   16   55       1
    59   17   56       1
    60   17   57       1
    61   22   58       1
    62   24   59       1
    63   27   60       1
    64   28   61       1
    65   33   62       1
    66   34   63       1
    67   35   64       1
    68   36   65       1
    69   11   66       1
@<TRIPOS>SUBSTRUCTURE
     1 BA1690      1 GROUP             4 A     BA1     0 **** BA1 A 690
