@<TRIPOS>MOLECULE
3hzg_FAD_1_ligand
   84    89     1     0     0
SMALL
NO_CHARGES


@<TRIPOS>ATOM
     1 PA          16.5140    -0.5070   -17.2960 P.3          1 FAD501   0.0000
     2 O1A         16.2380    -1.3770   -16.1120 O.co2        1 FAD501   0.0000
     3 O2A         15.3060    -0.2040   -18.0770 O.co2        1 FAD501  -1.0000
     4 O5B         17.5840    -1.2010   -18.2400 O.3          1 FAD501   0.0000
     5 C5B         18.3880    -2.2980   -17.8680 C.3          1 FAD501   0.0000
     6 C4B         19.6580    -2.2060   -18.6890 C.3          1 FAD501   0.0000
     7 O4B         19.3410    -2.0910   -20.0610 O.3          1 FAD501   0.0000
     8 C3B         20.4350    -0.9530   -18.3250 C.3          1 FAD501   0.0000
     9 O3B         21.5570    -1.3060   -17.5720 O.3          1 FAD501   0.0000
    10 C2B         20.8750    -0.3270   -19.6200 C.3          1 FAD501   0.0000
    11 O2B         22.2400    -0.5910   -19.8350 O.3          1 FAD501   0.0000
    12 C1B         20.0510    -1.0320   -20.6810 C.3          1 FAD501   0.0000
    13 N9A         19.1220    -0.1170   -21.3590 N.pl3        1 FAD501   0.0000
    14 C8A         17.7500    -0.1240   -21.3570 C.2          1 FAD501   0.0000
    15 N7A         17.3040     0.8800   -22.1560 N.2          1 FAD501   0.0000
    16 C5A         18.3630     1.5450   -22.6550 C.ar         1 FAD501   0.0000
    17 C6A         18.4760     2.6390   -23.4960 C.ar         1 FAD501   0.0000
    18 N6A         17.5020     2.9670   -24.3080 N.pl3        1 FAD501   0.0000
    19 N1A         19.7250     3.0720   -23.8270 N.ar         1 FAD501   0.0000
    20 C2A         20.8490     2.4360   -23.3230 C.ar         1 FAD501   0.0000
    21 N3A         20.7360     1.3610   -22.4800 N.ar         1 FAD501   0.0000
    22 C4A         19.5100     0.9250   -22.1590 C.ar         1 FAD501   0.0000
    23 N1          14.6390     8.4900   -12.8640 N.2          1 FAD501   0.0000
    24 C2          13.6890     9.4730   -12.9100 C.2          1 FAD501   0.0000
    25 O2          12.8300     9.4380   -13.7750 O.2          1 FAD501   0.0000
    26 N3          13.6650    10.4770   -11.9730 N.pl3        1 FAD501   0.0000
    27 C4          14.6170    10.5110   -10.9860 C.2          1 FAD501   0.0000
    28 O4          14.6180    11.4070   -10.1660 O.2          1 FAD501   0.0000
    29 C4X         15.6180     9.5480   -10.9490 C.2          1 FAD501   0.0000
    30 N5          16.5850     9.6110    -9.9760 N.2          1 FAD501   0.0000
    31 C5X         17.5750     8.6520    -9.9180 C.ar         1 FAD501   0.0000
    32 C6          18.5280     8.7540    -8.9120 C.ar         1 FAD501   0.0000
    33 C7          19.5480     7.8200    -8.8070 C.ar         1 FAD501   0.0000
    34 C7M         20.5690     7.9540    -7.7140 C.3          1 FAD501   0.0000
    35 C8          19.6080     6.7710    -9.7170 C.ar         1 FAD501   0.0000
    36 C8M         20.7130     5.7550    -9.5930 C.3          1 FAD501   0.0000
    37 C9          18.6500     6.6550   -10.7300 C.ar         1 FAD501   0.0000
    38 C9A         17.6180     7.5970   -10.8490 C.ar         1 FAD501   0.0000
    39 N10         16.6360     7.5450   -11.8560 N.pl3        1 FAD501   0.0000
    40 C10         15.6290     8.5160   -11.8930 C.2          1 FAD501   0.0000
    41 C1'         16.5610     6.4260   -12.8670 C.3          1 FAD501   0.0000
    42 C2'         15.4540     5.4840   -12.3010 C.3          1 FAD501   0.0000
    43 O2'         15.7090     5.2100   -10.9310 O.3          1 FAD501   0.0000
    44 C3'         15.1390     4.1690   -13.0450 C.3          1 FAD501   0.0000
    45 O3'         15.1200     2.9910   -12.2670 O.3          1 FAD501   0.0000
    46 C4'         16.1370     3.7730   -14.0600 C.3          1 FAD501   0.0000
    47 O4'         16.2460     4.8380   -14.9610 O.3          1 FAD501   0.0000
    48 C5'         15.6270     2.4870   -14.7390 C.3          1 FAD501   0.0000
    49 O5'         16.5170     1.4080   -14.5050 O.3          1 FAD501   0.0000
    50 P           17.7560     1.3940   -15.4900 P.3          1 FAD501   0.0000
    51 O1P         18.2500     2.7700   -15.6900 O.co2        1 FAD501   0.0000
    52 O2P         18.8700     0.5200   -15.0000 O.co2        1 FAD501  -1.0000
    53 O3P         17.1810     0.9190   -16.9250 O.3          1 FAD501   0.0000
    54 H5B1        17.9126    -3.1557   -18.0638 H            1 FAD501   0.0000
    55 H5B2        18.6041    -2.2517   -16.8927 H            1 FAD501   0.0000
    56 H4B         20.2239    -3.0160   -18.5355 H            1 FAD501   0.0000
    57 H3B         19.8554    -0.3204   -17.8113 H            1 FAD501   0.0000
    58 H5          21.2648    -1.7723   -16.7370 H            1 FAD501   0.0000
    59 H2B         20.6956     0.6568   -19.6218 H            1 FAD501   0.0000
    60 H7          22.7761    -0.2079   -19.0828 H            1 FAD501   0.0000
    61 H1B         20.6719    -1.4196   -21.3624 H            1 FAD501   0.0000
    62 H8A         17.1725    -0.7639   -20.8500 H            1 FAD501   0.0000
    63 H6A1        17.5982     3.7600   -24.9096 H            1 FAD501   0.0000
    64 H6A2        16.6622     2.4245   -24.3263 H            1 FAD501   0.0000
    65 H2A         21.7573     2.7670   -23.5787 H            1 FAD501   0.0000
    66 H13         12.9557    11.1810   -12.0102 H            1 FAD501   0.0000
    67 H14         18.4780     9.5082    -8.2573 H            1 FAD501   0.0000
    68 H7M1        21.2284     7.2051    -7.7802 H            1 FAD501   0.0000
    69 H7M2        21.0462     8.8277    -7.8089 H            1 FAD501   0.0000
    70 H7M3        20.1123     7.9184    -6.8251 H            1 FAD501   0.0000
    71 H8M1        20.6186     5.0700   -10.3154 H            1 FAD501   0.0000
    72 H8M2        21.5979     6.2125    -9.6809 H            1 FAD501   0.0000
    73 H8M3        20.6561     5.3079    -8.7003 H            1 FAD501   0.0000
    74 H21         18.7017     5.8930   -11.3755 H            1 FAD501   0.0000
    75 H1'1        17.4363     5.9470   -12.9333 H            1 FAD501   0.0000
    76 H1'2        16.3038     6.7766   -13.7675 H            1 FAD501   0.0000
    77 H2'         14.6078     6.0166   -12.3192 H            1 FAD501   0.0000
    78 H25         14.8432     5.0540   -10.4555 H            1 FAD501   0.0000
    79 H3'         14.2512     4.2651   -13.4951 H            1 FAD501   0.0000
    80 H27         15.8072     2.3521   -12.6127 H            1 FAD501   0.0000
    81 H4'         17.0203     3.6023   -13.6233 H            1 FAD501   0.0000
    82 H29         15.3722     5.3215   -15.0129 H            1 FAD501   0.0000
    83 H5'1        15.5529     2.6434   -15.7239 H            1 FAD501   0.0000
    84 H5'2        14.7270     2.2558   -14.3696 H            1 FAD501   0.0000
@<TRIPOS>BOND
     1    1    2      ar
     2    1    3      ar
     3    1    4       1
     4    1   53       1
     5    4    5       1
     6    5    6       1
     7    6    7       1
     8    6    8       1
     9    7   12       1
    10    8    9       1
    11    8   10       1
    12   10   11       1
    13   10   12       1
    14   12   13       1
    15   13   14       1
    16   13   22       1
    17   14   15       2
    18   15   16       1
    19   16   17      ar
    20   16   22      ar
    21   17   18       1
    22   17   19      ar
    23   19   20      ar
    24   20   21      ar
    25   21   22      ar
    26   23   24       1
    27   23   40       2
    28   24   25       2
    29   24   26       1
    30   26   27       1
    31   27   28       2
    32   27   29       1
    33   29   30       2
    34   29   40       1
    35   30   31       1
    36   31   32      ar
    37   31   38      ar
    38   32   33      ar
    39   33   34       1
    40   33   35      ar
    41   35   36       1
    42   35   37      ar
    43   37   38      ar
    44   38   39       1
    45   39   40       1
    46   39   41       1
    47   41   42       1
    48   42   43       1
    49   42   44       1
    50   44   45       1
    51   44   46       1
    52   46   47       1
    53   46   48       1
    54   48   49       1
    55   49   50       1
    56   50   51      ar
    57   50   52      ar
    58   50   53       1
    59   48   84       1
    60    5   54       1
    61    5   55       1
    62    6   56       1
    63    8   57       1
    64    9   58       1
    65   10   59       1
    66   11   60       1
    67   12   61       1
    68   14   62       1
    69   18   63       1
    70   18   64       1
    71   20   65       1
    72   26   66       1
    73   32   67       1
    74   34   68       1
    75   34   69       1
    76   34   70       1
    77   36   71       1
    78   36   72       1
    79   36   73       1
    80   37   74       1
    81   41   75       1
    82   41   76       1
    83   42   77       1
    84   43   78       1
    85   44   79       1
    86   45   80       1
    87   46   81       1
    88   47   82       1
    89   48   83       1
@<TRIPOS>SUBSTRUCTURE
     1 FAD501      1 GROUP             4 A     FAD     0 **** FAD A 501
