@<TRIPOS>MOLECULE
4d0l_093_1_ligand
   38    39     1     0     0
SMALL
NO_CHARGES


@<TRIPOS>ATOM
     1 OAM         10.5360   338.7990     9.2290 O.2          1 0932002   0.0000
     2 SAN          9.5640   338.0360     8.5590 S.o2         1 0932002   0.0000
     3 OAO         10.5140   337.3050     7.8120 O.2          1 0932002   0.0000
     4 NAU          8.4850   338.9250     7.6500 N.pl3        1 0932002   0.0000
     5 CAV          8.5330   340.3390     7.7530 C.2          1 0932002   0.0000
     6 CAW          7.3660   340.9050     7.2760 C.2          1 0932002   0.0000
     7 OAX          6.6940   339.7370     6.9220 O.3          1 0932002   0.0000
     8 CAF          8.5650   337.0470     9.6610 C.ar         1 0932002   0.0000
     9 CAB          8.0080   337.5680    10.8550 C.ar         1 0932002   0.0000
    10 CL           8.2680   339.2370    11.3710 Cl           1 0932002   0.0000
    11 CAC          7.2220   336.7930    11.6520 C.ar         1 0932002   0.0000
    12 CAD          6.9570   335.4730    11.2800 C.ar         1 0932002   0.0000
    13 CAG          8.2930   335.7290     9.2870 C.ar         1 0932002   0.0000
    14 CAH          7.4840   334.9740    10.0980 C.ar         1 0932002   0.0000
    15 CAI          7.2190   333.5510     9.7320 C.2          1 0932002   0.0000
    16 CAJ          6.8620   332.5210    10.5850 C.2          1 0932002   0.0000
    17 CAE          6.6400   332.6480    12.0530 C.3          1 0932002   0.0000
    18 NAK          6.7290   331.2810     9.8050 N.2          1 0932002   0.0000
    19 SAP          7.3180   333.0420     8.2740 S.3          1 0932002   0.0000
    20 CAQ          6.9960   331.4920     8.4840 C.2          1 0932002   0.0000
    21 NAR          6.9760   330.4860     7.4370 N.am         1 0932002   0.0000
    22 CAS          6.5820   330.8520     6.1030 C.2          1 0932002   0.0000
    23 OAL          6.2480   331.9940     5.8930 O.2          1 0932002   0.0000
    24 CAT          6.5700   329.8220     4.9730 C.3          1 0932002   0.0000
    25 HAU          7.8237   338.4747     7.0501 H            1 0932002   0.0000
    26 HAV          9.3061   340.8559     8.1207 H            1 0932002   0.0000
    27 HAW          7.0880   341.8630     7.2061 H            1 0932002   0.0000
    28 HAX          5.7770   339.7881     6.5263 H            1 0932002   0.0000
    29 HAC          6.8376   337.1657    12.4966 H            1 0932002   0.0000
    30 HAD          6.3902   334.8907    11.8629 H            1 0932002   0.0000
    31 HAG          8.6787   335.3449     8.4481 H            1 0932002   0.0000
    32 HAE1         6.3918   331.7561    12.4310 H            1 0932002   0.0000
    33 HAE2         7.4785   332.9736    12.4900 H            1 0932002   0.0000
    34 HAE3         5.9007   333.2995    12.2232 H            1 0932002   0.0000
    35 HAR          7.2352   329.5423     7.6427 H            1 0932002   0.0000
    36 HAT1         6.2703   330.2603     4.1256 H            1 0932002   0.0000
    37 HAT2         7.4908   329.4521     4.8494 H            1 0932002   0.0000
    38 HAT3         5.9410   329.0800     5.2050 H            1 0932002   0.0000
@<TRIPOS>BOND
     1    1    2       2
     2    2    3       2
     3    2    4       1
     4    2    8       1
     5    4    5       1
     6    5    6       2
     7    6    7       1
     8    8    9      ar
     9    8   13      ar
    10    9   10       1
    11    9   11      ar
    12   11   12      ar
    13   12   14      ar
    14   13   14      ar
    15   14   15       1
    16   15   16       2
    17   15   19       1
    18   16   17       1
    19   16   18       1
    20   18   20       2
    21   19   20       1
    22   20   21       1
    23   21   22      am
    24   22   23       2
    25   22   24       1
    26    4   25       1
    27    5   26       1
    28    6   27       1
    29    7   28       1
    30   11   29       1
    31   12   30       1
    32   13   31       1
    33   17   32       1
    34   17   33       1
    35   17   34       1
    36   21   35       1
    37   24   36       1
    38   24   37       1
    39   24   38       1
@<TRIPOS>SUBSTRUCTURE
     1 0932002     1 GROUP             4 A     093     0 **** 093 A2002
