@<TRIPOS>MOLECULE
2jsd_NGH_1_ligand
   40    40     1     0     0
SMALL
NO_CHARGES


@<TRIPOS>ATOM
     1 C1           7.0980    -5.6930     3.6030 C.ar         1 NGH277   0.0000
     2 C2           6.6160    -6.1160     2.3650 C.ar         1 NGH277   0.0000
     3 C3           6.0900    -5.1950     1.4600 C.ar         1 NGH277   0.0000
     4 C4           6.0900    -3.8570     1.7900 C.ar         1 NGH277   0.0000
     5 C5           6.5660    -3.4290     3.0170 C.ar         1 NGH277   0.0000
     6 C6           7.0430    -4.3450     3.9500 C.ar         1 NGH277   0.0000
     7 O1           5.5410    -5.5710     0.2580 O.3          1 NGH277   0.0000
     8 C7           6.2410    -6.4310    -0.6560 C.3          1 NGH277   0.0000
     9 S1           7.5470    -3.7500     5.5520 S.o2         1 NGH277   0.0000
    10 O2           7.3280    -2.3080     5.5350 O.2          1 NGH277   0.0000
    11 O3           8.9040    -4.1860     5.8440 O.2          1 NGH277   0.0000
    12 N            6.5730    -4.3820     6.7360 N.3          1 NGH277   0.0000
    13 C9           6.6020    -5.8470     7.1110 C.3          1 NGH277   0.0000
    14 C10          5.3850    -3.5940     7.1700 C.3          1 NGH277   0.0000
    15 C11          4.0980    -3.8260     6.4040 C.2          1 NGH277   0.0000
    16 N1           4.1690    -3.6450     5.0800 N.am         1 NGH277   0.0000
    17 O4           3.4260    -4.2840     4.2810 O.3          1 NGH277  -1.0000
    18 O5           3.0920    -4.2270     6.9460 O.2          1 NGH277   0.0000
    19 C12          7.9320    -6.1400     7.8790 C.3          1 NGH277   0.0000
    20 C13          8.8960    -7.0090     7.0530 C.3          1 NGH277   0.0000
    21 C14          7.6020    -6.8190     9.2240 C.3          1 NGH277   0.0000
    22 H1           7.4836    -6.3580     4.2426 H            1 NGH277   0.0000
    23 H2           6.6478    -7.0862     2.1246 H            1 NGH277   0.0000
    24 H3           5.7416    -3.1869     1.1346 H            1 NGH277   0.0000
    25 H4           6.5672    -2.4531     3.2351 H            1 NGH277   0.0000
    26 H5           5.6768    -6.5852    -1.4671 H            1 NGH277   0.0000
    27 H6           7.1021    -6.0002    -0.9259 H            1 NGH277   0.0000
    28 H7           6.4312    -7.3061    -0.2110 H            1 NGH277   0.0000
    29 H8           6.5604    -6.4073     6.2837 H            1 NGH277   0.0000
    30 H9           5.8205    -6.0600     7.6975 H            1 NGH277   0.0000
    31 H10          5.6170    -2.6249     7.0863 H            1 NGH277   0.0000
    32 H11          5.2101    -3.8132     8.1299 H            1 NGH277   0.0000
    33 H12          4.8268    -2.9873     4.7130 H            1 NGH277   0.0000
    34 H13          8.3821    -5.2678     8.0704 H            1 NGH277   0.0000
    35 H14          9.7310    -7.1724     7.5785 H            1 NGH277   0.0000
    36 H15          8.4588    -7.8832     6.8416 H            1 NGH277   0.0000
    37 H16          9.1248    -6.5363     6.2020 H            1 NGH277   0.0000
    38 H17          8.4501    -7.0083     9.7188 H            1 NGH277   0.0000
    39 H18          7.0253    -6.2123     9.7711 H            1 NGH277   0.0000
    40 H19          7.1166    -7.6767     9.0542 H            1 NGH277   0.0000
@<TRIPOS>BOND
     1    1    2      ar
     2    1    6      ar
     3    2    3      ar
     4    3    4      ar
     5    3    7       1
     6    4    5      ar
     7    5    6      ar
     8    6    9       1
     9    7    8       1
    10    9   10       2
    11    9   11       2
    12    9   12       1
    13   12   13       1
    14   12   14       1
    15   13   19       1
    16   14   15       1
    17   15   16      am
    18   15   18       2
    19   16   17       1
    20   19   20       1
    21   19   21       1
    22    1   22       1
    23    2   23       1
    24    4   24       1
    25    5   25       1
    26    8   26       1
    27    8   27       1
    28    8   28       1
    29   13   29       1
    30   13   30       1
    31   14   31       1
    32   14   32       1
    33   16   33       1
    34   21   40       1
    35   19   34       1
    36   20   35       1
    37   20   36       1
    38   20   37       1
    39   21   38       1
    40   21   39       1
@<TRIPOS>SUBSTRUCTURE
     1 NGH277      1 GROUP             4 A     NGH     0 **** NGH A 277
