@<TRIPOS>MOLECULE
2f2u_M77_1_ligand
   38    40     1     0     0
SMALL
NO_CHARGES


@<TRIPOS>ATOM
     1 O1          17.1510    71.1130   124.8810 O.2          1 M77501   0.0000
     2 S1          16.5020    72.3460   125.2090 S.o2         1 M77501   0.0000
     3 O2          16.9160    72.8250   126.4780 O.2          1 M77501   0.0000
     4 N4          16.7550    73.3460   123.9910 N.3          1 M77501   0.0000
     5 C22         16.7570    72.7270   122.6390 C.3          1 M77501   0.0000
     6 C21         17.1510    73.5750   121.4140 C.3          1 M77501   0.0000
     7 N17         18.1140    74.7050   121.5530 N.4          1 M77501   1.0000
     8 C16         19.0800    74.9180   122.6560 C.3          1 M77501   0.0000
     9 C20         18.4190    75.3220   123.9770 C.3          1 M77501   0.0000
    10 C15         16.9800    74.8140   124.2160 C.3          1 M77501   0.0000
    11 C5          14.7520    72.1410   125.2050 C.ar         1 M77501   0.0000
    12 C6          13.9520    73.0460   124.4650 C.ar         1 M77501   0.0000
    13 C7          12.5330    72.9490   124.3920 C.ar         1 M77501   0.0000
    14 C8          11.8280    71.9070   125.0320 C.ar         1 M77501   0.0000
    15 C9          12.5820    70.9760   125.7770 C.ar         1 M77501   0.0000
    16 C10         14.0710    71.0590   125.8650 C.ar         1 M77501   0.0000
    17 C11         14.7440    70.0880   126.6190 C.ar         1 M77501   0.0000
    18 C14         11.9210    69.9280   126.4430 C.ar         1 M77501   0.0000
    19 N13         12.6330    68.9890   127.1430 N.ar         1 M77501   0.0000
    20 C12         14.0030    69.0630   127.2770 C.ar         1 M77501   0.0000
    21 H1          15.8304    72.3896   122.4727 H            1 M77501   0.0000
    22 H2          17.3916    71.9550   122.6740 H            1 M77501   0.0000
    23 H3          16.3043    73.9634   121.0503 H            1 M77501   0.0000
    24 H4          17.5435    72.9450   120.7439 H            1 M77501   0.0000
    25 H5          17.5482    75.5295   121.5422 H            1 M77501   0.0000
    26 H6          19.7149    75.6416   122.3854 H            1 M77501   0.0000
    27 H7          19.5861    74.0680   122.8022 H            1 M77501   0.0000
    28 H8          18.3974    76.3212   124.0120 H            1 M77501   0.0000
    29 H9          18.9904    74.9747   124.7205 H            1 M77501   0.0000
    30 H10         16.7364    75.0193   125.1639 H            1 M77501   0.0000
    31 H11         16.3723    75.3148   123.5997 H            1 M77501   0.0000
    32 H12         14.4049    73.7879   123.9706 H            1 M77501   0.0000
    33 H13         12.0234    73.6363   123.8744 H            1 M77501   0.0000
    34 H14         10.8334    71.8317   124.9602 H            1 M77501   0.0000
    35 H15         15.7408    70.1140   126.6952 H            1 M77501   0.0000
    36 H16         10.9235    69.8676   126.4054 H            1 M77501   0.0000
    37 H17         14.4820    68.3908   127.8415 H            1 M77501   0.0000
    38 H18         18.6718    74.6726   120.7237 H            1 M77501   0.0000
@<TRIPOS>BOND
     1    1    2       2
     2    2    3       2
     3    2    4       1
     4    2   11       1
     5    4    5       1
     6    4   10       1
     7    5    6       1
     8    6    7       1
     9    7    8       1
    10    8    9       1
    11    9   10       1
    12   11   12      ar
    13   11   16      ar
    14   12   13      ar
    15   13   14      ar
    16   14   15      ar
    17   15   16      ar
    18   15   18      ar
    19   16   17      ar
    20   17   20      ar
    21   18   19      ar
    22   19   20      ar
    23    5   21       1
    24    5   22       1
    25    6   23       1
    26    6   24       1
    27    7   25       1
    28    8   26       1
    29    8   27       1
    30    9   28       1
    31    9   29       1
    32   10   30       1
    33   10   31       1
    34   12   32       1
    35   13   33       1
    36   14   34       1
    37   17   35       1
    38   18   36       1
    39   20   37       1
    40    7   38       1
@<TRIPOS>SUBSTRUCTURE
     1 M77501      1 GROUP             4 A     M77     0 **** M77 A 501
