@<TRIPOS>MOLECULE
4ccu_AWF_1_ligand
   55    58     1     0     0
SMALL
NO_CHARGES


@<TRIPOS>ATOM
     1 C13         34.6610    46.9170     8.9240 C.ar         1 AWF1500   0.0000
     2 C14         34.9340    46.7420    10.3000 C.ar         1 AWF1500   0.0000
     3 C6          29.8850    45.9040     8.5890 C.ar         1 AWF1500   0.0000
     4 C16         33.4390    44.7990    10.3460 C.ar         1 AWF1500   0.0000
     5 C20         33.1040    47.4080     5.0940 C.2          1 AWF1500   0.0000
     6 C21         33.4890    46.1150     4.7530 C.2          1 AWF1500   0.0000
     7 C4          27.7900    46.4170     9.6050 C.ar         1 AWF1500   0.0000
     8 C5          28.8210    46.8210     8.7300 C.ar         1 AWF1500   0.0000
     9 C10         33.1320    44.9420     8.9410 C.ar         1 AWF1500   0.0000
    10 C12         33.7680    46.0350     8.2280 C.ar         1 AWF1500   0.0000
    11 C1          29.9410    44.6560     9.2670 C.ar         1 AWF1500   0.0000
    12 C15         34.3240    45.6870    10.9990 C.ar         1 AWF1500   0.0000
    13 C23         28.8460    48.1030     7.9860 C.2          1 AWF1500   0.0000
    14 C24         27.8490    48.9200     7.4270 C.2          1 AWF1500   0.0000
    15 C2          28.8550    44.3450    10.1220 C.ar         1 AWF1500   0.0000
    16 C26         29.6350    50.1390     6.8480 C.2          1 AWF1500   0.0000
    17 C30         26.3670    48.7270     7.4240 C.3          1 AWF1500   0.0000
    18 C11         32.7850    42.5370     8.1600 C.3          1 AWF1500   0.0000
    19 C31         30.0460    52.6170     6.8240 C.3          1 AWF1500   0.0000
    20 C32         30.2210    51.2610     4.7090 C.3          1 AWF1500   0.0000
    21 C9          32.1420    43.9230     8.3280 C.3          1 AWF1500   0.0000
    22 C28         30.4360    51.2650     6.2290 C.3          1 AWF1500   0.0000
    23 N3          27.7900    45.2170    10.2870 N.ar         1 AWF1500   0.0000
    24 N19         33.1540    47.5550     6.4170 N.2          1 AWF1500   0.0000
    25 N22         33.7890    45.4190     5.8530 N.2          1 AWF1500   0.0000
    26 N25         28.3190    50.0640     6.7910 N.2          1 AWF1500   0.0000
    27 N18         33.5740    46.3220     6.8380 N.pl3        1 AWF1500   0.0000
    28 N8          28.8470    43.1210    10.8300 N.pl3        1 AWF1500   0.0000
    29 O29         31.8360    51.0580     6.4700 O.3          1 AWF1500   0.0000
    30 O7          30.9610    43.7170     9.1740 O.3          1 AWF1500   0.0000
    31 F17         34.5820    45.5240    12.3040 F            1 AWF1500   0.0000
    32 S27         30.3840    48.8420     7.6740 S.3          1 AWF1500   0.0000
    33 H1          35.0972    47.6675     8.4276 H            1 AWF1500   0.0000
    34 H2          35.5572    47.3651    10.7727 H            1 AWF1500   0.0000
    35 H3          30.6400    46.1454     7.9793 H            1 AWF1500   0.0000
    36 H4          33.0169    44.0569    10.8667 H            1 AWF1500   0.0000
    37 H5          32.8314    48.1183     4.4450 H            1 AWF1500   0.0000
    38 H6          33.5345    45.7585     3.8198 H            1 AWF1500   0.0000
    39 H7          27.0155    47.0353     9.7385 H            1 AWF1500   0.0000
    40 H8          25.9327    49.4881     6.9422 H            1 AWF1500   0.0000
    41 H9          26.1435    47.8689     6.9618 H            1 AWF1500   0.0000
    42 H10         26.0331    48.6949     8.3661 H            1 AWF1500   0.0000
    43 H11         32.1185    41.9063     7.7626 H            1 AWF1500   0.0000
    44 H12         33.5781    42.6086     7.5551 H            1 AWF1500   0.0000
    45 H13         33.0768    42.1944     9.0530 H            1 AWF1500   0.0000
    46 H14         30.5904    53.3388     6.3966 H            1 AWF1500   0.0000
    47 H15         29.0752    52.7877     6.6557 H            1 AWF1500   0.0000
    48 H16         30.2172    52.6095     7.8092 H            1 AWF1500   0.0000
    49 H17         30.7484    52.0034     4.2958 H            1 AWF1500   0.0000
    50 H18         30.5248    50.3862     4.3317 H            1 AWF1500   0.0000
    51 H19         29.2498    51.3909     4.5094 H            1 AWF1500   0.0000
    52 H20         31.8465    44.2551     7.4323 H            1 AWF1500   0.0000
    53 H21         28.0822    42.8980    11.4344 H            1 AWF1500   0.0000
    54 H22         29.6062    42.4784    10.7263 H            1 AWF1500   0.0000
    55 H23         32.0950    51.4987     7.3295 H            1 AWF1500   0.0000
@<TRIPOS>BOND
     1    1    2      ar
     2    1   10      ar
     3    2   12      ar
     4    3    8      ar
     5    3   11      ar
     6    4    9      ar
     7    4   12      ar
     8    5    6       1
     9    5   24       2
    10    6   25       2
    11    7    8      ar
    12    7   23      ar
    13    8   13       1
    14    9   10      ar
    15    9   21       1
    16   10   27       1
    17   11   15      ar
    18   11   30       1
    19   12   31       1
    20   13   14       2
    21   13   32       1
    22   14   17       1
    23   14   26       1
    24   15   23      ar
    25   15   28       1
    26   16   22       1
    27   16   26       2
    28   16   32       1
    29   18   21       1
    30   19   22       1
    31   20   22       1
    32   21   30       1
    33   22   29       1
    34   24   27       1
    35   25   27       1
    36    1   33       1
    37    2   34       1
    38    3   35       1
    39    4   36       1
    40    5   37       1
    41    6   38       1
    42    7   39       1
    43   17   40       1
    44   17   41       1
    45   17   42       1
    46   18   43       1
    47   18   44       1
    48   18   45       1
    49   19   46       1
    50   19   47       1
    51   19   48       1
    52   20   49       1
    53   20   50       1
    54   20   51       1
    55   21   52       1
    56   28   53       1
    57   28   54       1
    58   29   55       1
@<TRIPOS>SUBSTRUCTURE
     1 AWF1500     1 GROUP             4 A     AWF     0 **** AWF A1500
