@<TRIPOS>MOLECULE
2z77_HE7_2_ligand
   54    57     1     0     0
SMALL
NO_CHARGES


@<TRIPOS>ATOM
     1 OAB         30.7340     5.9250    14.3040 O.co2        1 HE7200   0.0000
     2 CAR         30.0840     5.0130    14.9180 C.2          1 HE7200   0.0000
     3 OAC         28.8400     4.9120    14.8340 O.co2        1 HE7200  -1.0000
     4 CAI         30.8070     4.0000    15.8060 C.3          1 HE7200   0.0000
     5 CAK         30.1440     2.6000    15.9110 C.3          1 HE7200   0.0000
     6 CAV         31.1070     1.7240    16.7240 C.2          1 HE7200   0.0000
     7 OAE         30.8740     0.3130    16.6500 O.2          1 HE7200   0.0000
     8 OAQ         30.9940     2.1720    18.0570 O.3          1 HE7200   0.0000
     9 CAW         31.6780     1.3740    19.0290 C.3          1 HE7200   0.0000
    10 CBA         31.1460     1.7590    20.3880 C.3          1 HE7200   0.0000
    11 CAA         31.1570     3.2870    20.4500 C.3          1 HE7200   0.0000
    12 CAM         33.1840     1.6460    19.1340 C.3          1 HE7200   0.0000
    13 CAO         33.5310     1.6500    20.6310 C.3          1 HE7200   0.0000
    14 CAZ         32.2370     1.1480    21.2680 C.3          1 HE7200   0.0000
    15 CAY         31.9580     1.3660    22.7630 C.3          1 HE7200   0.0000
    16 CAX         30.6190     0.6740    23.1060 C.3          1 HE7200   0.0000
    17 CAN         29.5070     1.3140    22.2750 C.3          1 HE7200   0.0000
    18 CAP         29.7770     1.1900    20.7700 C.3          1 HE7200   0.0000
    19 CAL         33.0600     0.9110    23.7120 C.3          1 HE7200   0.0000
    20 CAJ         32.7280     1.5040    25.0760 C.3          1 HE7200   0.0000
    21 CAT         31.2870     1.1810    25.4780 C.ar         1 HE7200   0.0000
    22 CAU         30.2940     0.7790    24.5530 C.ar         1 HE7200   0.0000
    23 CAH         30.9660     1.2930    26.8360 C.ar         1 HE7200   0.0000
    24 CAS         29.6820     1.0210    27.2890 C.ar         1 HE7200   0.0000
    25 OAD         29.4300     1.1730    28.6260 O.3          1 HE7200   0.0000
    26 CAF         28.7010     0.6120    26.3750 C.ar         1 HE7200   0.0000
    27 CAG         28.9950     0.5000    25.0090 C.ar         1 HE7200   0.0000
    28 HAI1        30.8615     4.3837    16.7278 H            1 HE7200   0.0000
    29 HAI2        31.7299     3.8760    15.4415 H            1 HE7200   0.0000
    30 HAK1        30.0095     2.2118    14.9993 H            1 HE7200   0.0000
    31 HAK2        29.2621     2.6691    16.3773 H            1 HE7200   0.0000
    32 HAW         31.5136     0.4029    18.8561 H            1 HE7200   0.0000
    33 HAA1        30.8102     3.5871    21.3387 H            1 HE7200   0.0000
    34 HAA2        32.0924     3.6188    20.3278 H            1 HE7200   0.0000
    35 HAA3        30.5756     3.6543    19.7240 H            1 HE7200   0.0000
    36 HAM1        33.4028     2.5331    18.7275 H            1 HE7200   0.0000
    37 HAM2        33.6971     0.9281    18.6636 H            1 HE7200   0.0000
    38 HAO1        33.7566     2.5713    20.9477 H            1 HE7200   0.0000
    39 HAO2        34.2938     1.0339    20.8273 H            1 HE7200   0.0000
    40 HAZ         32.2078     0.1604    21.1137 H            1 HE7200   0.0000
    41 HAY         31.8307     2.3480    22.9026 H            1 HE7200   0.0000
    42 HAX         30.6859    -0.2934    22.8616 H            1 HE7200   0.0000
    43 HAN1        29.4416     2.2830    22.5133 H            1 HE7200   0.0000
    44 HAN2        28.6419     0.8595    22.4872 H            1 HE7200   0.0000
    45 HAP1        29.7455     0.2238    20.5142 H            1 HE7200   0.0000
    46 HAP2        29.0685     1.6900    20.2720 H            1 HE7200   0.0000
    47 HAL1        33.9478     1.2459    23.3964 H            1 HE7200   0.0000
    48 HAL2        33.0800    -0.0874    23.7649 H            1 HE7200   0.0000
    49 HAJ1        32.8422     2.4967    25.0376 H            1 HE7200   0.0000
    50 HAJ2        33.3513     1.1229    25.7588 H            1 HE7200   0.0000
    51 HAH         31.6706     1.5725    27.4882 H            1 HE7200   0.0000
    52 HAD         28.5164     0.9858    28.9871 H            1 HE7200   0.0000
    53 HAF         27.7804     0.3976    26.7014 H            1 HE7200   0.0000
    54 HAG         28.2839     0.2230    24.3627 H            1 HE7200   0.0000
@<TRIPOS>BOND
     1    1    2      ar
     2    2    3      ar
     3    2    4       1
     4    4    5       1
     5    5    6       1
     6    6    7       2
     7    6    8       1
     8    8    9       1
     9    9   10       1
    10    9   12       1
    11   10   11       1
    12   10   14       1
    13   10   18       1
    14   12   13       1
    15   13   14       1
    16   14   15       1
    17   15   16       1
    18   15   19       1
    19   16   17       1
    20   16   22       1
    21   17   18       1
    22   19   20       1
    23   20   21       1
    24   21   22      ar
    25   21   23      ar
    26   22   27      ar
    27   23   24      ar
    28   24   25       1
    29   24   26      ar
    30   26   27      ar
    31   27   54       1
    32    4   28       1
    33    4   29       1
    34    5   30       1
    35    5   31       1
    36    9   32       1
    37   11   33       1
    38   11   34       1
    39   11   35       1
    40   12   36       1
    41   12   37       1
    42   13   38       1
    43   13   39       1
    44   14   40       1
    45   15   41       1
    46   16   42       1
    47   17   43       1
    48   17   44       1
    49   18   45       1
    50   18   46       1
    51   19   47       1
    52   19   48       1
    53   20   49       1
    54   20   50       1
    55   23   51       1
    56   25   52       1
    57   26   53       1
@<TRIPOS>SUBSTRUCTURE
     1 HE7200      1 GROUP             4 B     HE7     0 **** HE7 B 200
