@<TRIPOS>MOLECULE
4o43_2PW_1_ligand
   34    35     1     0     0
SMALL
NO_CHARGES


@<TRIPOS>ATOM
     1 CAA         14.8800   456.2130    23.6550 C.3          1 2PW403   0.0000
     2 CAK         14.6500   455.4740    24.9740 C.3          1 2PW403   0.0000
     3 CAR         15.3640   456.1640    26.1510 C.3          1 2PW403   0.0000
     4 CAB         16.8830   456.0670    25.9630 C.3          1 2PW403   0.0000
     5 NAS         14.8910   457.5740    26.4050 N.am         1 2PW403   0.0000
     6 CAO         15.2310   458.7580    25.8390 C.2          1 2PW403   0.0000
     7 OAC         16.0620   458.7970    24.9370 O.2          1 2PW403   0.0000
     8 CAP         13.9730   457.7260    27.3630 C.2          1 2PW403   0.0000
     9 SAE         13.3030   456.4560    28.3050 S.2          1 2PW403   0.0000
    10 SAL         13.5800   459.2690    27.5120 S.3          1 2PW403   0.0000
    11 CAQ         14.5770   459.8320    26.3470 C.2          1 2PW403   0.0000
    12 CAF         14.5700   461.1630    26.1140 C.2          1 2PW403   0.0000
    13 CAN         15.3180   461.9020    25.1810 C.ar         1 2PW403   0.0000
    14 CAI         15.0640   463.2700    25.1700 C.ar         1 2PW403   0.0000
    15 CAG         15.7260   464.1250    24.2970 C.ar         1 2PW403   0.0000
    16 CAM         16.6640   463.6160    23.4080 C.ar         1 2PW403   0.0000
    17 OAD         17.3160   464.4470    22.5520 O.3          1 2PW403   0.0000
    18 CAH         16.9310   462.2540    23.4000 C.ar         1 2PW403   0.0000
    19 CAJ         16.2570   461.4140    24.2780 C.ar         1 2PW403   0.0000
    20 HAA1        14.4020   455.7356    22.9177 H            1 2PW403   0.0000
    21 HAA2        14.5291   457.1464    23.7303 H            1 2PW403   0.0000
    22 HAA3        15.8593   456.2402    23.4545 H            1 2PW403   0.0000
    23 HAK1        14.9985   454.5408    24.8867 H            1 2PW403   0.0000
    24 HAK2        13.6683   455.4469    25.1625 H            1 2PW403   0.0000
    25 HAR         15.1423   455.6353    26.9704 H            1 2PW403   0.0000
    26 HAB1        17.3430   456.5160    26.7290 H            1 2PW403   0.0000
    27 HAB2        17.1539   455.1050    25.9291 H            1 2PW403   0.0000
    28 HAB3        17.1425   456.5167    25.1084 H            1 2PW403   0.0000
    29 HAF         13.9458   461.6966    26.6847 H            1 2PW403   0.0000
    30 HAI         14.3895   463.6467    25.8050 H            1 2PW403   0.0000
    31 HAG         15.5274   465.1050    24.3088 H            1 2PW403   0.0000
    32 HAD         17.9908   464.0775    21.9131 H            1 2PW403   0.0000
    33 HAH         17.6059   461.8786    22.7647 H            1 2PW403   0.0000
    34 HAJ         16.4520   460.4333    24.2603 H            1 2PW403   0.0000
@<TRIPOS>BOND
     1    1    2       1
     2    2    3       1
     3    3    4       1
     4    3    5       1
     5    5    6      am
     6    5    8       1
     7    6    7       2
     8    6   11       1
     9    8    9       2
    10    8   10       1
    11   10   11       1
    12   11   12       2
    13   12   13       1
    14   13   14      ar
    15   13   19      ar
    16   14   15      ar
    17   15   16      ar
    18   16   17       1
    19   16   18      ar
    20   18   19      ar
    21    1   20       1
    22    1   21       1
    23    1   22       1
    24    2   23       1
    25    2   24       1
    26    3   25       1
    27    4   26       1
    28    4   27       1
    29    4   28       1
    30   12   29       1
    31   14   30       1
    32   15   31       1
    33   17   32       1
    34   18   33       1
    35   19   34       1
@<TRIPOS>SUBSTRUCTURE
     1 2PW403      1 GROUP             4 A     2PW     0 **** 2PW A 403
