@<TRIPOS>MOLECULE
2bgs_NDP_1_ligand
   73    77     1     0     0
SMALL
NO_CHARGES


@<TRIPOS>ATOM
     1 PA          54.3560    53.2190    20.2650 P.3          1 NDP1321   0.0000
     2 O1A         53.7870    52.8490    21.6180 O.co2        1 NDP1321   0.0000
     3 O2A         54.2410    52.2670    19.1380 O.co2        1 NDP1321  -1.0000
     4 O5B         55.8650    53.6790    20.5980 O.3          1 NDP1321   0.0000
     5 C5B         56.6810    54.2450    19.5220 C.3          1 NDP1321   0.0000
     6 C4B         58.0200    54.6500    20.1130 C.3          1 NDP1321   0.0000
     7 O4B         58.7240    53.4360    20.4610 O.3          1 NDP1321   0.0000
     8 C3B         58.9430    55.3440    19.1330 C.3          1 NDP1321   0.0000
     9 O3B         59.7340    56.2700    19.9000 O.3          1 NDP1321   0.0000
    10 C2B         59.7720    54.2200    18.5520 C.3          1 NDP1321   0.0000
    11 O2B         60.9860    54.7390    18.0580 O.3          1 NDP1321   0.0000
    12 C1B         59.9470    53.3010    19.7250 C.3          1 NDP1321   0.0000
    13 N9A         59.9890    51.8850    19.4460 N.pl3        1 NDP1321   0.0000
    14 C8A         59.3010    51.1890    18.4450 C.2          1 NDP1321   0.0000
    15 N7A         59.5340    49.8940    18.4790 N.2          1 NDP1321   0.0000
    16 C5A         60.3900    49.7330    19.5340 C.ar         1 NDP1321   0.0000
    17 C6A         61.0090    48.5770    20.1180 C.ar         1 NDP1321   0.0000
    18 N6A         60.8040    47.3240    19.6620 N.pl3        1 NDP1321   0.0000
    19 N1A         61.8290    48.7930    21.1910 N.ar         1 NDP1321   0.0000
    20 C2A         62.0440    50.0330    21.6780 C.ar         1 NDP1321   0.0000
    21 N3A         61.5020    51.1970    21.2110 N.ar         1 NDP1321   0.0000
    22 C4A         60.6820    50.9620    20.1340 C.ar         1 NDP1321   0.0000
    23 O3          53.9000    54.6750    19.8030 O.3          1 NDP1321   0.0000
    24 PN          52.7410    55.4960    19.1370 P.3          1 NDP1321   0.0000
    25 O1N         53.2350    55.9610    17.8290 O.co2        1 NDP1321   0.0000
    26 O2N         52.3630    56.4880    20.1890 O.co2        1 NDP1321  -1.0000
    27 O5D         51.4970    54.5270    18.9740 O.3          1 NDP1321   0.0000
    28 C5D         51.4010    53.5750    17.9090 C.3          1 NDP1321   0.0000
    29 C4D         50.3960    54.0250    16.8880 C.3          1 NDP1321   0.0000
    30 O4D         49.1020    54.1790    17.4830 O.3          1 NDP1321   0.0000
    31 C3D         50.6370    55.3830    16.2250 C.3          1 NDP1321   0.0000
    32 O3D         51.7560    55.4380    15.3620 O.3          1 NDP1321   0.0000
    33 C2D         49.2710    55.6410    15.5920 C.3          1 NDP1321   0.0000
    34 O2D         49.2230    54.9070    14.3640 O.3          1 NDP1321   0.0000
    35 C1D         48.3440    55.1440    16.7430 C.3          1 NDP1321   0.0000
    36 N1N         47.9490    56.2600    17.6920 N.ar         1 NDP1321   1.0000
    37 C2N         46.6210    56.6970    17.6560 C.ar         1 NDP1321   0.0000
    38 C3N         46.2040    57.7390    18.4980 C.ar         1 NDP1321   0.0000
    39 C7N         44.7980    58.2200    18.5070 C.2          1 NDP1321   0.0000
    40 O7N         44.5170    59.2710    19.1290 O.2          1 NDP1321   0.0000
    41 N7N         43.9080    57.4540    17.8800 N.am         1 NDP1321   0.0000
    42 C4N         47.1400    58.3570    19.3870 C.ar         1 NDP1321   0.0000
    43 C5N         48.4820    57.9000    19.4230 C.ar         1 NDP1321   0.0000
    44 C6N         48.8790    56.8600    18.5850 C.ar         1 NDP1321   0.0000
    45 P2B         61.4820    54.4230    16.5580 P.3          1 NDP1321   0.0000
    46 O1X         60.4490    54.8490    15.5580 O.co2        1 NDP1321   0.0000
    47 O2X         62.7670    55.2360    16.5440 O.co2        1 NDP1321  -1.0000
    48 O3X         61.7330    52.9340    16.4990 O.co2        1 NDP1321  -1.0000
    49 H5B1        56.2244    55.0462    19.1352 H            1 NDP1321   0.0000
    50 H5B2        56.8191    53.5615    18.8052 H            1 NDP1321   0.0000
    51 H4B         57.8842    55.2180    20.9247 H            1 NDP1321   0.0000
    52 H3B         58.4242    55.8160    18.4202 H            1 NDP1321   0.0000
    53 H5          60.7025    56.0401    19.8042 H            1 NDP1321   0.0000
    54 H2B         59.2685    53.7588    17.8214 H            1 NDP1321   0.0000
    55 H1B         60.7304    53.5782    20.2813 H            1 NDP1321   0.0000
    56 H8A         58.6989    51.6274    17.7777 H            1 NDP1321   0.0000
    57 H6A1        61.2589    46.5506    20.1034 H            1 NDP1321   0.0000
    58 H6A2        60.1971    47.1686    18.8825 H            1 NDP1321   0.0000
    59 H2A         62.6628    50.1075    22.4600 H            1 NDP1321   0.0000
    60 H5D1        51.1176    52.6916    18.2822 H            1 NDP1321   0.0000
    61 H5D2        52.2950    53.4804    17.4709 H            1 NDP1321   0.0000
    62 H4D         50.3360    53.3286    16.1729 H            1 NDP1321   0.0000
    63 H3D         50.7733    56.0591    16.9491 H            1 NDP1321   0.0000
    64 H16         52.5658    55.7077    15.8830 H            1 NDP1321   0.0000
    65 H2D         49.1366    56.6179    15.4260 H            1 NDP1321   0.0000
    66 H18         48.2787    54.6396    14.1722 H            1 NDP1321   0.0000
    67 H1D         47.5254    54.7150    16.3610 H            1 NDP1321   0.0000
    68 H2N         45.9694    56.2673    17.0309 H            1 NDP1321   0.0000
    69 H7N1        42.9460    57.7256    17.8522 H            1 NDP1321   0.0000
    70 H7N2        44.2014    56.6070    17.4368 H            1 NDP1321   0.0000
    71 H4N         46.8490    59.1077    19.9801 H            1 NDP1321   0.0000
    72 H5N         49.1400    58.3220    20.0466 H            1 NDP1321   0.0000
    73 H6N         49.8238    56.5335    18.6117 H            1 NDP1321   0.0000
@<TRIPOS>BOND
     1    1    2      ar
     2    1    3      ar
     3    1    4       1
     4    1   23       1
     5    4    5       1
     6    5    6       1
     7    6    7       1
     8    6    8       1
     9    7   12       1
    10    8    9       1
    11    8   10       1
    12   10   11       1
    13   10   12       1
    14   11   45       1
    15   12   13       1
    16   13   14       1
    17   13   22       1
    18   14   15       2
    19   15   16       1
    20   16   17      ar
    21   16   22      ar
    22   17   18       1
    23   17   19      ar
    24   19   20      ar
    25   20   21      ar
    26   21   22      ar
    27   23   24       1
    28   24   25      ar
    29   24   26      ar
    30   24   27       1
    31   27   28       1
    32   28   29       1
    33   29   30       1
    34   29   31       1
    35   30   35       1
    36   31   32       1
    37   31   33       1
    38   33   34       1
    39   33   35       1
    40   35   36       1
    41   36   37      ar
    42   36   44      ar
    43   37   38      ar
    44   38   39       1
    45   38   42      ar
    46   39   40       2
    47   39   41      am
    48   42   43      ar
    49   43   44      ar
    50   45   46      ar
    51   45   47      ar
    52   45   48      ar
    53   43   72       1
    54    5   49       1
    55    5   50       1
    56    6   51       1
    57    8   52       1
    58    9   53       1
    59   10   54       1
    60   12   55       1
    61   14   56       1
    62   18   57       1
    63   18   58       1
    64   20   59       1
    65   44   73       1
    66   28   60       1
    67   28   61       1
    68   29   62       1
    69   31   63       1
    70   32   64       1
    71   33   65       1
    72   34   66       1
    73   35   67       1
    74   37   68       1
    75   41   69       1
    76   41   70       1
    77   42   71       1
@<TRIPOS>SUBSTRUCTURE
     1 NDP1321     1 GROUP             4 A     NDP     0 **** NDP A1321
