@<TRIPOS>MOLECULE
3tsc_NAD_2_ligand
   70    74     1     0     0
SMALL
NO_CHARGES


@<TRIPOS>ATOM
     1 PA         -17.0880    35.9210   -44.8720 P.3          1 NAD274   0.0000
     2 O1A        -18.0240    37.0790   -45.1740 O.co2        1 NAD274   0.0000
     3 O2A        -17.1810    34.6820   -45.7030 O.co2        1 NAD274  -1.0000
     4 O5B        -15.5920    36.4780   -44.8090 O.3          1 NAD274   0.0000
     5 C5B        -14.5020    35.5940   -45.0470 C.3          1 NAD274   0.0000
     6 C4B        -13.6210    36.1530   -46.1550 C.3          1 NAD274   0.0000
     7 O4B        -12.4370    35.3690   -46.2530 O.3          1 NAD274   0.0000
     8 C3B        -14.2830    36.1530   -47.5310 C.3          1 NAD274   0.0000
     9 O3B        -14.0160    37.4470   -48.1270 O.3          1 NAD274   0.0000
    10 C2B        -13.5280    35.0710   -48.2870 C.3          1 NAD274   0.0000
    11 O2B        -13.4180    35.3270   -49.7000 O.3          1 NAD274   0.0000
    12 C1B        -12.1600    35.1440   -47.6280 C.3          1 NAD274   0.0000
    13 N9A        -11.4740    33.8650   -47.8290 N.pl3        1 NAD274   0.0000
    14 C8A        -12.0050    32.6370   -47.6430 C.2          1 NAD274   0.0000
    15 N7A        -11.1070    31.6810   -47.9520 N.2          1 NAD274   0.0000
    16 C5A         -9.9510    32.2970   -48.3150 C.ar         1 NAD274   0.0000
    17 C6A         -8.6090    31.8510   -48.7450 C.ar         1 NAD274   0.0000
    18 N6A         -8.3210    30.5240   -48.8560 N.pl3        1 NAD274   0.0000
    19 N1A         -7.6960    32.8100   -49.0360 N.ar         1 NAD274   0.0000
    20 C2A         -8.0140    34.1300   -48.9220 C.ar         1 NAD274   0.0000
    21 N3A         -9.2180    34.6090   -48.5490 N.ar         1 NAD274   0.0000
    22 C4A        -10.2000    33.7460   -48.2400 C.ar         1 NAD274   0.0000
    23 O3         -17.2560    35.3750   -43.3710 O.3          1 NAD274   0.0000
    24 PN         -16.8040    36.0830   -42.0020 P.3          1 NAD274   0.0000
    25 O1N        -17.8780    35.7140   -41.0130 O.co2        1 NAD274   0.0000
    26 O2N        -16.3210    37.5270   -42.1870 O.co2        1 NAD274  -1.0000
    27 O5D        -15.4870    35.2050   -41.7330 O.3          1 NAD274   0.0000
    28 C5D        -14.4330    35.6680   -40.8800 C.3          1 NAD274   0.0000
    29 C4D        -13.8270    34.5490   -40.0090 C.3          1 NAD274   0.0000
    30 O4D        -14.6120    34.3280   -38.8310 O.3          1 NAD274   0.0000
    31 C3D        -13.6260    33.1640   -40.6510 C.3          1 NAD274   0.0000
    32 O3D        -12.3310    32.6740   -40.1860 O.3          1 NAD274   0.0000
    33 C2D        -14.7340    32.3460   -40.0430 C.3          1 NAD274   0.0000
    34 O2D        -14.4090    30.9530   -39.9900 O.3          1 NAD274   0.0000
    35 C1D        -14.8460    32.9450   -38.6310 C.3          1 NAD274   0.0000
    36 N1N        -16.1420    32.7880   -37.9290 N.ar         1 NAD274   1.0000
    37 C2N        -17.2970    33.2130   -38.4920 C.ar         1 NAD274   0.0000
    38 C3N        -18.5220    33.0460   -37.8180 C.ar         1 NAD274   0.0000
    39 C7N        -19.8120    33.5410   -38.4160 C.2          1 NAD274   0.0000
    40 O7N        -20.8620    33.2880   -37.8610 O.2          1 NAD274   0.0000
    41 N7N        -19.7930    34.3000   -39.5100 N.am         1 NAD274   0.0000
    42 C4N        -18.5310    32.4680   -36.5320 C.ar         1 NAD274   0.0000
    43 C5N        -17.3080    32.0640   -35.9760 C.ar         1 NAD274   0.0000
    44 C6N        -16.1380    32.2280   -36.7050 C.ar         1 NAD274   0.0000
    45 H5B1       -14.8536    34.6990   -45.3215 H            1 NAD274   0.0000
    46 H5B2       -13.9630    35.4980   -44.2102 H            1 NAD274   0.0000
    47 H4B        -13.3666    37.0913   -45.9208 H            1 NAD274   0.0000
    48 H3B        -15.2626    35.9594   -47.4766 H            1 NAD274   0.0000
    49 H5         -13.0281    37.5787   -48.2093 H            1 NAD274   0.0000
    50 H2B        -13.9456    34.1768   -48.1259 H            1 NAD274   0.0000
    51 H7         -12.5838    35.8481   -49.8804 H            1 NAD274   0.0000
    52 H1B        -11.6235    35.8971   -48.0088 H            1 NAD274   0.0000
    53 H8A        -12.9353    32.4617   -47.3208 H            1 NAD274   0.0000
    54 H6A1        -7.4099    30.2328   -49.1478 H            1 NAD274   0.0000
    55 H6A2        -9.0207    29.8412   -48.6457 H            1 NAD274   0.0000
    56 H2A         -7.2981    34.7960   -49.1315 H            1 NAD274   0.0000
    57 H5D1       -14.7989    36.3776   -40.2779 H            1 NAD274   0.0000
    58 H5D2       -13.7086    36.0556   -41.4502 H            1 NAD274   0.0000
    59 H4D        -12.9278    34.8661   -39.7074 H            1 NAD274   0.0000
    60 H3D        -13.6828    33.1969   -41.6488 H            1 NAD274   0.0000
    61 H17        -11.6124    33.3078   -40.4722 H            1 NAD274   0.0000
    62 H2D        -15.5859    32.4851   -40.5480 H            1 NAD274   0.0000
    63 H19        -15.1694    30.4486   -39.5808 H            1 NAD274   0.0000
    64 H1D        -14.1170    32.5699   -38.0584 H            1 NAD274   0.0000
    65 H2N        -17.2804    33.6483   -39.3921 H            1 NAD274   0.0000
    66 H7N1       -20.6507    34.6280   -39.9060 H            1 NAD274   0.0000
    67 H7N2       -18.9210    34.5420   -39.9356 H            1 NAD274   0.0000
    68 H4N        -19.3872    32.3491   -36.0292 H            1 NAD274   0.0000
    69 H5N        -17.2792    31.6609   -35.0613 H            1 NAD274   0.0000
    70 H6N        -15.2710    31.9226   -36.3111 H            1 NAD274   0.0000
@<TRIPOS>BOND
     1    1    2      ar
     2    1    3      ar
     3    1    4       1
     4    1   23       1
     5    4    5       1
     6    5    6       1
     7    6    7       1
     8    6    8       1
     9    7   12       1
    10    8    9       1
    11    8   10       1
    12   10   11       1
    13   10   12       1
    14   12   13       1
    15   13   14       1
    16   13   22       1
    17   14   15       2
    18   15   16       1
    19   16   17      ar
    20   16   22      ar
    21   17   18       1
    22   17   19      ar
    23   19   20      ar
    24   20   21      ar
    25   21   22      ar
    26   23   24       1
    27   24   25      ar
    28   24   26      ar
    29   24   27       1
    30   27   28       1
    31   28   29       1
    32   29   30       1
    33   29   31       1
    34   30   35       1
    35   31   32       1
    36   31   33       1
    37   33   34       1
    38   33   35       1
    39   35   36       1
    40   36   37      ar
    41   36   44      ar
    42   37   38      ar
    43   38   39       1
    44   38   42      ar
    45   39   40       2
    46   39   41      am
    47   42   43      ar
    48   43   44      ar
    49   44   70       1
    50    5   45       1
    51    5   46       1
    52    6   47       1
    53    8   48       1
    54    9   49       1
    55   10   50       1
    56   11   51       1
    57   12   52       1
    58   14   53       1
    59   18   54       1
    60   18   55       1
    61   20   56       1
    62   43   69       1
    63   28   57       1
    64   28   58       1
    65   29   59       1
    66   31   60       1
    67   32   61       1
    68   33   62       1
    69   34   63       1
    70   35   64       1
    71   37   65       1
    72   41   66       1
    73   41   67       1
    74   42   68       1
@<TRIPOS>SUBSTRUCTURE
     1 NAD274      1 GROUP             4 B     NAD     0 **** NAD B 274
