@<TRIPOS>MOLECULE
3emz_HXH_1_ligand
   46    48     1     0     0
SMALL
NO_CHARGES


@<TRIPOS>ATOM
     1 C1          13.4150     5.5130     3.5170 C.3          1 HXH1000   0.0000
     2 N1          12.4760     4.3970     3.1350 N.4          1 HXH1000   1.0000
     3 C2          14.8950     5.1910     3.2660 C.3          1 HXH1000   0.0000
     4 O2          15.3010     3.9590     3.8420 O.3          1 HXH1000   0.0000
     5 C3          15.7970     6.3350     3.6640 C.3          1 HXH1000   0.0000
     6 O3          17.1010     6.0580     3.1920 O.3          1 HXH1000   0.0000
     7 C4          15.3140     7.6510     3.0680 C.3          1 HXH1000   0.0000
     8 O4          16.1000     8.7310     3.5720 O.3          1 HXH1000   0.0000
     9 C5          14.0180     7.8340     3.3680 C.2          1 HXH1000   0.0000
    10 C6          13.0790     6.9050     2.9520 C.2          1 HXH1000   0.0000
    11 C10         10.9550     4.6930     3.3800 C.3          1 HXH1000   0.0000
    12 C11         10.1510     4.5150     2.1590 C.ar         1 HXH1000   0.0000
    13 C12         10.3390     3.4100     1.3210 C.ar         1 HXH1000   0.0000
    14 C13          9.5480     3.2340     0.1380 C.ar         1 HXH1000   0.0000
    15 C14          8.5680     4.1860    -0.1740 C.ar         1 HXH1000   0.0000
    16 C15          8.3650     5.2920     0.6430 C.ar         1 HXH1000   0.0000
    17 C16          9.1590     5.4510     1.8140 C.ar         1 HXH1000   0.0000
    18 O20          7.7440     4.0010    -1.3820 O.3          1 HXH1000   0.0000
    19 C21          7.8370     4.7230    -2.6560 C.ar         1 HXH1000   0.0000
    20 C22          6.6560     5.0980    -3.3150 C.ar         1 HXH1000   0.0000
    21 C23          6.6950     5.7880    -4.5380 C.ar         1 HXH1000   0.0000
    22 C24          7.9530     6.0970    -5.1050 C.ar         1 HXH1000   0.0000
    23 C25          9.1310     5.7410    -4.4810 C.ar         1 HXH1000   0.0000
    24 C26          9.0650     5.0300    -3.2190 C.ar         1 HXH1000   0.0000
    25 H1          13.3288     5.6028     4.5092 H            1 HXH1000   0.0000
    26 H2          12.7237     3.5878     3.6678 H            1 HXH1000   0.0000
    27 H3          14.9955     5.0852     2.2767 H            1 HXH1000   0.0000
    28 H4          15.6290     4.1184     4.7731 H            1 HXH1000   0.0000
    29 H5          15.8152     6.4104     4.6610 H            1 HXH1000   0.0000
    30 H6          17.6082     5.5534     3.8907 H            1 HXH1000   0.0000
    31 H7          15.4145     7.6131     2.0738 H            1 HXH1000   0.0000
    32 H8          16.1465     9.4577     2.8866 H            1 HXH1000   0.0000
    33 H9          13.7321     8.6378     3.8897 H            1 HXH1000   0.0000
    34 H10         12.2939     7.1095     2.3674 H            1 HXH1000   0.0000
    35 H11         10.8572     5.6369     3.6955 H            1 HXH1000   0.0000
    36 H12         10.6146     4.0693     4.0837 H            1 HXH1000   0.0000
    37 H13         11.0368     2.7317     1.5511 H            1 HXH1000   0.0000
    38 H14          9.6936     2.4429    -0.4561 H            1 HXH1000   0.0000
    39 H15          7.6676     5.9699     0.4104 H            1 HXH1000   0.0000
    40 H16          9.0084     6.2446     2.4036 H            1 HXH1000   0.0000
    41 H17          5.7719     4.8702    -2.9071 H            1 HXH1000   0.0000
    42 H18          5.8489     6.0557    -4.9990 H            1 HXH1000   0.0000
    43 H19          7.9897     6.5843    -5.9775 H            1 HXH1000   0.0000
    44 H20         10.0139     5.9691    -4.8915 H            1 HXH1000   0.0000
    45 H21          9.9082     4.7605    -2.7538 H            1 HXH1000   0.0000
    46 H22         12.6015     4.2063     2.1614 H            1 HXH1000   0.0000
@<TRIPOS>BOND
     1    1    2       1
     2    1    3       1
     3    1   10       1
     4    2   11       1
     5    3    4       1
     6    3    5       1
     7    5    6       1
     8    5    7       1
     9    7    8       1
    10    7    9       1
    11    9   10       2
    12   11   12       1
    13   12   13      ar
    14   12   17      ar
    15   13   14      ar
    16   14   15      ar
    17   15   16      ar
    18   15   18       1
    19   16   17      ar
    20   18   19       1
    21   19   20      ar
    22   19   24      ar
    23   20   21      ar
    24   21   22      ar
    25   22   23      ar
    26   23   24      ar
    27    1   25       1
    28    2   26       1
    29    3   27       1
    30    4   28       1
    31    5   29       1
    32    6   30       1
    33    7   31       1
    34    8   32       1
    35    9   33       1
    36   10   34       1
    37   11   35       1
    38   11   36       1
    39   13   37       1
    40   14   38       1
    41   16   39       1
    42   17   40       1
    43   20   41       1
    44   21   42       1
    45   22   43       1
    46   23   44       1
    47   24   45       1
    48    2   46       1
@<TRIPOS>SUBSTRUCTURE
     1 HXH1000     1 GROUP             4 A     HXH     0 **** HXH A1000
