@<TRIPOS>MOLECULE
3i7v_B4P_1_ligand
   77    82     1     0     0
SMALL
NO_CHARGES


@<TRIPOS>ATOM
     1 PA          19.6330    19.5830    32.6490 P.3          1 B4P136   0.0000
     2 O1A         20.1230    20.4090    33.7210 O.co2        1 B4P136   0.0000
     3 O2A         18.2770    19.5770    32.2450 O.co2        1 B4P136  -1.0000
     4 O3A         20.5060    20.2740    31.5100 O.3          1 B4P136   0.0000
     5 PB          20.7280    19.8500    30.0250 P.3          1 B4P136   0.0000
     6 O1B         19.7310    19.0050    29.6970 O.co2        1 B4P136   0.0000
     7 O2B         22.1140    19.4010    30.3020 O.co2        1 B4P136  -1.0000
     8 O3B         21.2870    20.9070    28.9430 O.3          1 B4P136   0.0000
     9 PG          22.6500    20.5900    28.1720 P.3          1 B4P136   0.0000
    10 O1G         22.6230    20.5200    26.8480 O.co2        1 B4P136   0.0000
    11 O2G         23.6970    20.8550    29.0560 O.co2        1 B4P136  -1.0000
    12 O3G         22.9400    19.0350    28.1970 O.3          1 B4P136   0.0000
    13 PD          24.1740    17.9890    28.0190 P.3          1 B4P136   0.0000
    14 O1D         25.3420    18.5890    27.6010 O.co2        1 B4P136   0.0000
    15 O2D         23.7600    16.8000    28.6790 O.co2        1 B4P136  -1.0000
    16 O5E         19.9870    18.1170    32.8960 O.3          1 B4P136   0.0000
    17 C5E         20.7450    17.8700    33.9910 C.3          1 B4P136   0.0000
    18 C4E         21.1740    16.5110    33.7480 C.3          1 B4P136   0.0000
    19 O4E         20.7590    15.8610    34.9150 O.3          1 B4P136   0.0000
    20 C3E         20.3830    15.8700    32.6880 C.3          1 B4P136   0.0000
    21 O3E         21.3980    15.5170    31.8510 O.3          1 B4P136   0.0000
    22 C2E         19.6200    14.7110    33.4090 C.3          1 B4P136   0.0000
    23 O2E         19.6490    13.3670    32.9280 O.3          1 B4P136   0.0000
    24 C1E         20.0740    14.7080    34.8460 C.3          1 B4P136   0.0000
    25 N9A         18.9860    14.7170    35.7620 N.pl3        1 B4P136   0.0000
    26 C8A         18.2940    15.7730    35.9630 C.2          1 B4P136   0.0000
    27 N7A         17.2910    15.6010    36.7550 N.2          1 B4P136   0.0000
    28 C5A         17.3570    14.3910    37.1530 C.ar         1 B4P136   0.0000
    29 C6A         16.6230    13.6390    38.0990 C.ar         1 B4P136   0.0000
    30 N6A         15.6270    14.2590    38.6700 N.pl3        1 B4P136   0.0000
    31 N1A         16.9550    12.3640    38.3060 N.ar         1 B4P136   0.0000
    32 C2A         17.9600    11.8820    37.6510 C.ar         1 B4P136   0.0000
    33 N3A         18.7210    12.5600    36.7220 N.ar         1 B4P136   0.0000
    34 C4A         18.4890    13.7930    36.4780 C.ar         1 B4P136   0.0000
    35 O5F         23.9130    17.3510    26.6230 O.3          1 B4P136   0.0000
    36 C5F         24.7840    17.4160    25.5380 C.3          1 B4P136   0.0000
    37 C4F         24.5810    16.2540    24.5430 C.3          1 B4P136   0.0000
    38 O4F         25.3350    15.0840    24.6580 O.3          1 B4P136   0.0000
    39 C3F         23.1810    15.9010    24.4820 C.3          1 B4P136   0.0000
    40 O3F         22.8260    16.6680    23.3690 O.3          1 B4P136   0.0000
    41 C2F         23.2520    14.4500    24.2110 C.3          1 B4P136   0.0000
    42 O2F         22.8830    14.2730    22.8730 O.3          1 B4P136   0.0000
    43 C1F         24.6400    13.9660    24.5760 C.3          1 B4P136   0.0000
    44 N9B         24.7570    13.2650    25.8370 N.pl3        1 B4P136   0.0000
    45 C8B         24.9040    13.8240    27.0340 C.2          1 B4P136   0.0000
    46 N7B         24.9910    12.9580    28.0110 N.2          1 B4P136   0.0000
    47 C5B         24.8530    11.7900    27.4610 C.ar         1 B4P136   0.0000
    48 C6B         24.8810    10.4160    27.8790 C.ar         1 B4P136   0.0000
    49 N6B         24.9650    10.0570    29.1200 N.pl3        1 B4P136   0.0000
    50 N1B         24.7270     9.4840    26.9340 N.ar         1 B4P136   0.0000
    51 C2B         24.5590     9.7630    25.6720 C.ar         1 B4P136   0.0000
    52 N3B         24.5540    10.9300    25.1990 N.ar         1 B4P136   0.0000
    53 C4B         24.7030    12.0100    26.0120 C.ar         1 B4P136   0.0000
    54 H5E1        20.2060    17.9378    34.8306 H            1 B4P136   0.0000
    55 H5E2        21.5242    18.4946    34.0437 H            1 B4P136   0.0000
    56 H4E         22.1593    16.4379    33.5937 H            1 B4P136   0.0000
    57 H3E         19.7531    16.5147    32.2548 H            1 B4P136   0.0000
    58 H5          21.0224    15.0528    31.0489 H            1 B4P136   0.0000
    59 H2E         18.6569    14.9797    33.4231 H            1 B4P136   0.0000
    60 H7          19.5554    12.7354    33.6976 H            1 B4P136   0.0000
    61 H1E         20.6765    13.9297    35.0230 H            1 B4P136   0.0000
    62 H8A         18.5113    16.6543    35.5433 H            1 B4P136   0.0000
    63 H6A1        15.0663    13.7851    39.3490 H            1 B4P136   0.0000
    64 H6A2        15.4244    15.2080    38.4286 H            1 B4P136   0.0000
    65 H2A         18.2082    10.9309    37.8347 H            1 B4P136   0.0000
    66 H5F1        25.7235    17.3849    25.8793 H            1 B4P136   0.0000
    67 H5F2        24.6325    18.2795    25.0570 H            1 B4P136   0.0000
    68 H4F         24.8029    16.6292    23.6430 H            1 B4P136   0.0000
    69 H3F         22.6705    16.1320    25.3103 H            1 B4P136   0.0000
    70 H17         21.8686    16.9459    23.4473 H            1 B4P136   0.0000
    71 H2F         22.5860    13.9822    24.7920 H            1 B4P136   0.0000
    72 H19         21.9537    14.6158    22.7354 H            1 B4P136   0.0000
    73 H1F         25.0032    13.3965    23.8386 H            1 B4P136   0.0000
    74 H8B         24.9443    14.8132    27.1746 H            1 B4P136   0.0000
    75 H6B1        24.9810     9.0863    29.3597 H            1 B4P136   0.0000
    76 H6B2        25.0139    10.7504    29.8389 H            1 B4P136   0.0000
    77 H2B         24.4254     9.0010    25.0384 H            1 B4P136   0.0000
@<TRIPOS>BOND
     1    1    2      ar
     2    1    3      ar
     3    1    4       1
     4    1   16       1
     5    4    5       1
     6    5    6      ar
     7    5    7      ar
     8    5    8       1
     9    8    9       1
    10    9   10      ar
    11    9   11      ar
    12    9   12       1
    13   12   13       1
    14   13   14      ar
    15   13   15      ar
    16   13   35       1
    17   16   17       1
    18   17   18       1
    19   18   19       1
    20   18   20       1
    21   19   24       1
    22   20   21       1
    23   20   22       1
    24   22   23       1
    25   22   24       1
    26   24   25       1
    27   25   26       1
    28   25   34       1
    29   26   27       2
    30   27   28       1
    31   28   29      ar
    32   28   34      ar
    33   29   30       1
    34   29   31      ar
    35   31   32      ar
    36   32   33      ar
    37   33   34      ar
    38   35   36       1
    39   36   37       1
    40   37   38       1
    41   37   39       1
    42   38   43       1
    43   39   40       1
    44   39   41       1
    45   41   42       1
    46   41   43       1
    47   43   44       1
    48   44   45       1
    49   44   53       1
    50   45   46       2
    51   46   47       1
    52   47   48      ar
    53   47   53      ar
    54   48   49       1
    55   48   50      ar
    56   50   51      ar
    57   51   52      ar
    58   52   53      ar
    59   51   77       1
    60   49   76       1
    61   49   75       1
    62   45   74       1
    63   17   54       1
    64   17   55       1
    65   18   56       1
    66   20   57       1
    67   21   58       1
    68   22   59       1
    69   23   60       1
    70   24   61       1
    71   26   62       1
    72   30   63       1
    73   30   64       1
    74   32   65       1
    75   36   66       1
    76   36   67       1
    77   37   68       1
    78   39   69       1
    79   40   70       1
    80   41   71       1
    81   42   72       1
    82   43   73       1
@<TRIPOS>SUBSTRUCTURE
     1 B4P136      1 GROUP             4 A     B4P     0 **** B4P A 136
