@<TRIPOS>MOLECULE
2yd0_BES_1_ligand
   46    46     1     0     0
SMALL
NO_CHARGES


@<TRIPOS>ATOM
     1 N2           6.2780    75.3130    21.2640 N.4          1 BES1950   1.0000
     2 C1           7.3290    74.7450    22.0370 C.3          1 BES1950   0.0000
     3 C6           8.3460    75.8010    22.5610 C.3          1 BES1950   0.0000
     4 C7           8.1730    76.4140    23.9570 C.ar         1 BES1950   0.0000
     5 C8           8.5880    75.7710    25.1240 C.ar         1 BES1950   0.0000
     6 C12          7.6140    77.6800    24.0930 C.ar         1 BES1950   0.0000
     7 C9           8.4200    76.3800    26.3810 C.ar         1 BES1950   0.0000
     8 C11          7.4470    78.2770    25.3380 C.ar         1 BES1950   0.0000
     9 C10          7.8570    77.6450    26.4880 C.ar         1 BES1950   0.0000
    10 C2           8.1710    73.6890    21.2260 C.3          1 BES1950   0.0000
    11 O2           7.5030    72.8870    20.2710 O.3          1 BES1950   0.0000
    12 C3           8.5720    72.6130    22.1440 C.2          1 BES1950   0.0000
    13 O3           7.6100    71.9590    22.5280 O.2          1 BES1950   0.0000
    14 N1           9.8670    72.4670    22.4640 N.am         1 BES1950   0.0000
    15 C4          10.3240    71.4380    23.4340 C.3          1 BES1950   0.0000
    16 C13         11.2420    70.3680    22.7960 C.3          1 BES1950   0.0000
    17 C14         11.0370    68.9450    23.4060 C.3          1 BES1950   0.0000
    18 C15         11.5010    67.8040    22.4850 C.3          1 BES1950   0.0000
    19 C16          9.6130    68.6310    23.8830 C.3          1 BES1950   0.0000
    20 C5          11.0000    72.0860    24.6100 C.2          1 BES1950   0.0000
    21 O1          11.4140    73.2450    24.4490 O.co2        1 BES1950   0.0000
    22 O4          11.0980    71.4810    25.7020 O.co2        1 BES1950  -1.0000
    23 H1           6.5477    75.3370    20.3014 H            1 BES1950   0.0000
    24 H2           5.4524    74.7579    21.3651 H            1 BES1950   0.0000
    25 H3           6.9232    74.2829    22.8255 H            1 BES1950   0.0000
    26 H4           8.3337    76.5600    21.9100 H            1 BES1950   0.0000
    27 H5           9.2459    75.3650    22.5478 H            1 BES1950   0.0000
    28 H6           9.0100    74.8662    25.0660 H            1 BES1950   0.0000
    29 H7           7.3243    78.1745    23.2735 H            1 BES1950   0.0000
    30 H8           8.7093    75.8964    27.2071 H            1 BES1950   0.0000
    31 H9           7.0220    79.1802    25.3976 H            1 BES1950   0.0000
    32 H10          7.7524    78.0854    27.3797 H            1 BES1950   0.0000
    33 H11          8.9761    74.1207    20.8193 H            1 BES1950   0.0000
    34 H12          7.0882    73.4732    19.5751 H            1 BES1950   0.0000
    35 H13         10.5436    73.0675    22.0378 H            1 BES1950   0.0000
    36 H14          9.5107    70.9684    23.7776 H            1 BES1950   0.0000
    37 H15         12.1939    70.6405    22.9360 H            1 BES1950   0.0000
    38 H16         11.0482    70.3254    21.8159 H            1 BES1950   0.0000
    39 H17         11.6192    68.9027    24.2180 H            1 BES1950   0.0000
    40 H18         11.3413    66.9258    22.9359 H            1 BES1950   0.0000
    41 H19         10.9866    67.8372    21.6281 H            1 BES1950   0.0000
    42 H20         12.4768    67.9071    22.2922 H            1 BES1950   0.0000
    43 H21          9.5830    67.7032    24.2550 H            1 BES1950   0.0000
    44 H22          9.3478    69.2835    24.5929 H            1 BES1950   0.0000
    45 H23          8.9800    68.7016    23.1120 H            1 BES1950   0.0000
    46 H24          6.0953    76.2432    21.5823 H            1 BES1950   0.0000
@<TRIPOS>BOND
     1    1    2       1
     2    2    3       1
     3    2   10       1
     4    3    4       1
     5    4    5      ar
     6    4    6      ar
     7    5    7      ar
     8    6    8      ar
     9    7    9      ar
    10    8    9      ar
    11   10   11       1
    12   10   12       1
    13   12   13       2
    14   12   14      am
    15   14   15       1
    16   15   16       1
    17   15   20       1
    18   16   17       1
    19   17   18       1
    20   17   19       1
    21   20   21      ar
    22   20   22      ar
    23    1   23       1
    24    1   24       1
    25    2   25       1
    26    3   26       1
    27    3   27       1
    28    5   28       1
    29    6   29       1
    30    7   30       1
    31    8   31       1
    32    9   32       1
    33   10   33       1
    34   11   34       1
    35   14   35       1
    36   15   36       1
    37   16   37       1
    38   16   38       1
    39   17   39       1
    40   18   40       1
    41   18   41       1
    42   18   42       1
    43   19   43       1
    44   19   44       1
    45   19   45       1
    46    1   46       1
@<TRIPOS>SUBSTRUCTURE
     1 BES1950     1 GROUP             4 A     BES     0 **** BES A1950
