@<TRIPOS>MOLECULE
4aic_NDP_1_ligand
   74    78     1     0     0
SMALL
NO_CHARGES


@<TRIPOS>ATOM
     1 PA          19.4880   -10.4820    47.8740 P.3          1 NDP1392   0.0000
     2 O1A         18.4010   -10.8690    48.8130 O.co2        1 NDP1392   0.0000
     3 O2A         19.9440   -11.7690    47.0080 O.co2        1 NDP1392  -1.0000
     4 O5B         20.7650    -9.9090    48.7300 O.3          1 NDP1392   0.0000
     5 C5B         20.3390    -8.8860    49.6970 C.3          1 NDP1392   0.0000
     6 C4B         21.6340    -8.2590    50.4040 C.3          1 NDP1392   0.0000
     7 O4B         21.2420    -7.3530    51.4510 O.3          1 NDP1392   0.0000
     8 C3B         22.4410    -9.3690    51.0760 C.3          1 NDP1392   0.0000
     9 O3B         23.8420    -9.1980    50.8130 O.3          1 NDP1392   0.0000
    10 C2B         22.1440    -9.1810    52.5560 C.3          1 NDP1392   0.0000
    11 O2B         23.1670    -9.6960    53.4170 O.3          1 NDP1392   0.0000
    12 C1B         21.9530    -7.6770    52.6500 C.3          1 NDP1392   0.0000
    13 N9A         21.2210    -7.2280    53.8640 N.pl3        1 NDP1392   0.0000
    14 C8A         20.1030    -7.7630    54.4040 C.2          1 NDP1392   0.0000
    15 N7A         19.7190    -7.0820    55.5190 N.2          1 NDP1392   0.0000
    16 C5A         20.6090    -6.0830    55.7080 C.ar         1 NDP1392   0.0000
    17 C6A         20.8160    -4.9780    56.6880 C.ar         1 NDP1392   0.0000
    18 N6A         19.9730    -4.7870    57.7340 N.pl3        1 NDP1392   0.0000
    19 N1A         21.8770    -4.1520    56.5060 N.ar         1 NDP1392   0.0000
    20 C2A         22.7420    -4.3130    55.4880 C.ar         1 NDP1392   0.0000
    21 N3A         22.6170    -5.2890    54.5670 N.ar         1 NDP1392   0.0000
    22 C4A         21.5920    -6.1840    54.6120 C.ar         1 NDP1392   0.0000
    23 O3          18.9100    -9.2680    46.9160 O.3          1 NDP1392   0.0000
    24 PN          19.4470    -9.2940    45.3740 P.3          1 NDP1392   0.0000
    25 O1N         18.8210   -10.4290    44.6750 O.co2        1 NDP1392   0.0000
    26 O2N         21.0430    -9.4760    45.3660 O.co2        1 NDP1392  -1.0000
    27 O5D         19.0240    -7.9020    44.6060 O.3          1 NDP1392   0.0000
    28 C5D         19.1710    -6.7880    45.4980 C.3          1 NDP1392   0.0000
    29 C4D         17.9130    -5.9380    45.4140 C.3          1 NDP1392   0.0000
    30 O4D         17.6180    -5.6290    43.9910 O.3          1 NDP1392   0.0000
    31 C3D         16.7380    -6.7870    45.9450 C.3          1 NDP1392   0.0000
    32 O3D         16.0140    -6.0900    46.9670 O.3          1 NDP1392   0.0000
    33 C2D         15.8710    -7.1100    44.7430 C.3          1 NDP1392   0.0000
    34 O2D         14.5000    -7.0390    45.1040 O.3          1 NDP1392   0.0000
    35 C1D         16.2300    -6.0560    43.7120 C.3          1 NDP1392   0.0000
    36 N1N         16.1170    -6.5880    42.3440 N.pl3        1 NDP1392   0.0000
    37 C2N         17.0130    -7.5710    41.9380 C.2          1 NDP1392   0.0000
    38 C3N         16.6930    -8.4140    40.9390 C.2          1 NDP1392   0.0000
    39 C7N         17.4730    -9.5540    40.5910 C.2          1 NDP1392   0.0000
    40 O7N         17.6930    -9.7960    39.4240 O.2          1 NDP1392   0.0000
    41 N7N         17.9550   -10.3640    41.5560 N.am         1 NDP1392   0.0000
    42 C4N         15.3790    -8.1970    40.2090 C.3          1 NDP1392   0.0000
    43 C5N         14.7420    -6.8400    40.4450 C.2          1 NDP1392   0.0000
    44 C6N         15.1190    -6.1360    41.4640 C.2          1 NDP1392   0.0000
    45 P2B         23.0140   -11.1960    54.0050 P.3          1 NDP1392   0.0000
    46 O1X         24.2120   -11.3800    54.9110 O.co2        1 NDP1392   0.0000
    47 O2X         23.0360   -12.0690    52.7650 O.co2        1 NDP1392  -1.0000
    48 O3X         21.6690   -11.1870    54.6960 O.co2        1 NDP1392  -1.0000
    49 H5B1        19.7496    -9.3038    50.3884 H            1 NDP1392   0.0000
    50 H5B2        19.8353    -8.1649    49.2213 H            1 NDP1392   0.0000
    51 H4B         22.1982    -7.7828    49.7296 H            1 NDP1392   0.0000
    52 H3B         22.1311   -10.2677    50.7656 H            1 NDP1392   0.0000
    53 H5          24.3566    -9.9306    51.2584 H            1 NDP1392   0.0000
    54 H2B         21.2787    -9.6325    52.7735 H            1 NDP1392   0.0000
    55 H1B         22.8488    -7.2331    52.6273 H            1 NDP1392   0.0000
    56 H8A         19.6204    -8.5562    54.0327 H            1 NDP1392   0.0000
    57 H6A1        20.1351    -4.0380    58.3765 H            1 NDP1392   0.0000
    58 H6A2        19.1897    -5.3952    57.8624 H            1 NDP1392   0.0000
    59 H2A         23.5123    -3.6800    55.4113 H            1 NDP1392   0.0000
    60 H5D1        19.9655    -6.2431    45.2300 H            1 NDP1392   0.0000
    61 H5D2        19.2937    -7.1184    46.4338 H            1 NDP1392   0.0000
    62 H4D         18.0147    -5.0980    45.9470 H            1 NDP1392   0.0000
    63 H3D         17.0979    -7.6391    46.3249 H            1 NDP1392   0.0000
    64 H16         16.4304    -5.1935    47.1180 H            1 NDP1392   0.0000
    65 H2D         16.0894    -8.0217    44.3950 H            1 NDP1392   0.0000
    66 H18         14.3126    -7.6977    45.8327 H            1 NDP1392   0.0000
    67 H1D         15.6168    -5.2726    43.8133 H            1 NDP1392   0.0000
    68 H2N         17.9007    -7.6520    42.3913 H            1 NDP1392   0.0000
    69 H7N1        18.5024   -11.1639    41.3101 H            1 NDP1392   0.0000
    70 H7N2        17.7649   -10.1646    42.5173 H            1 NDP1392   0.0000
    71 H4N1        14.7351    -8.9004    40.5100 H            1 NDP1392   0.0000
    72 H4N2        15.5469    -8.2964    39.2282 H            1 NDP1392   0.0000
    73 H5N         14.0405    -6.4942    39.8218 H            1 NDP1392   0.0000
    74 H6N         14.6892    -5.2483    41.6290 H            1 NDP1392   0.0000
@<TRIPOS>BOND
     1    1    2      ar
     2    1    3      ar
     3    1    4       1
     4    1   23       1
     5    4    5       1
     6    5    6       1
     7    6    7       1
     8    6    8       1
     9    7   12       1
    10    8    9       1
    11    8   10       1
    12   10   11       1
    13   10   12       1
    14   11   45       1
    15   12   13       1
    16   13   14       1
    17   13   22       1
    18   14   15       2
    19   15   16       1
    20   16   17      ar
    21   16   22      ar
    22   17   18       1
    23   17   19      ar
    24   19   20      ar
    25   20   21      ar
    26   21   22      ar
    27   23   24       1
    28   24   25      ar
    29   24   26      ar
    30   24   27       1
    31   27   28       1
    32   28   29       1
    33   29   30       1
    34   29   31       1
    35   30   35       1
    36   31   32       1
    37   31   33       1
    38   33   34       1
    39   33   35       1
    40   35   36       1
    41   36   37       1
    42   36   44       1
    43   37   38       2
    44   38   39       1
    45   38   42       1
    46   39   40       2
    47   39   41      am
    48   42   43       1
    49   43   44       2
    50   45   46      ar
    51   45   47      ar
    52   45   48      ar
    53   43   73       1
    54    5   49       1
    55    5   50       1
    56    6   51       1
    57    8   52       1
    58    9   53       1
    59   10   54       1
    60   12   55       1
    61   14   56       1
    62   18   57       1
    63   18   58       1
    64   20   59       1
    65   44   74       1
    66   28   60       1
    67   28   61       1
    68   29   62       1
    69   31   63       1
    70   32   64       1
    71   33   65       1
    72   34   66       1
    73   35   67       1
    74   37   68       1
    75   41   69       1
    76   41   70       1
    77   42   71       1
    78   42   72       1
@<TRIPOS>SUBSTRUCTURE
     1 NDP1392     1 GROUP             4 B     NDP     0 **** NDP B1392
