@<TRIPOS>MOLECULE
1pno_NAP_2_ligand
   73    77     1     0     0
SMALL
NO_CHARGES


@<TRIPOS>ATOM
     1 PA          -4.8740    45.4890    31.4730 P.3          1 NAP500   0.0000
     2 O1A         -5.0380    45.0930    32.8920 O.co2        1 NAP500   0.0000
     3 O2A         -3.5430    45.5020    30.8200 O.co2        1 NAP500  -1.0000
     4 O5B         -5.8380    44.5580    30.6540 O.3          1 NAP500   0.0000
     5 C5B         -7.1910    44.5920    30.3660 C.3          1 NAP500   0.0000
     6 C4B         -7.8690    43.4540    29.6990 C.3          1 NAP500   0.0000
     7 O4B         -8.3400    43.6260    28.3260 O.3          1 NAP500   0.0000
     8 C3B         -7.0710    42.2290    29.5770 C.3          1 NAP500   0.0000
     9 O3B         -7.0630    41.4900    30.8450 O.3          1 NAP500   0.0000
    10 C2B         -7.5510    41.4230    28.4750 C.3          1 NAP500   0.0000
    11 O2B         -7.9340    40.1250    28.5520 O.3          1 NAP500   0.0000
    12 C1B         -8.6450    42.2300    27.9150 C.3          1 NAP500   0.0000
    13 N9A         -8.7880    42.3150    26.3600 N.pl3        1 NAP500   0.0000
    14 C8A         -7.7290    42.3960    25.4340 C.2          1 NAP500   0.0000
    15 N7A         -8.1990    42.4540    24.1990 N.2          1 NAP500   0.0000
    16 C5A         -9.5610    42.4160    24.2540 C.ar         1 NAP500   0.0000
    17 C6A        -10.6780    42.4350    23.3810 C.ar         1 NAP500   0.0000
    18 N6A        -10.4760    42.5150    22.0560 N.pl3        1 NAP500   0.0000
    19 N1A        -11.9570    42.3740    23.8870 N.ar         1 NAP500   0.0000
    20 C2A        -12.2160    42.2940    25.2370 C.ar         1 NAP500   0.0000
    21 N3A        -11.2470    42.2680    26.1710 N.ar         1 NAP500   0.0000
    22 C4A         -9.9710    42.3270    25.7000 C.ar         1 NAP500   0.0000
    23 O3          -5.4600    46.9540    31.1150 O.3          1 NAP500   0.0000
    24 PN          -6.1390    48.0840    32.1780 P.3          1 NAP500   0.0000
    25 O1N         -7.1960    47.5710    33.0850 O.co2        1 NAP500   0.0000
    26 O2N         -6.4680    49.1730    31.2160 O.co2        1 NAP500  -1.0000
    27 O5D         -4.7370    48.3110    32.7660 O.3          1 NAP500   0.0000
    28 C5D         -3.5800    48.9760    32.3400 C.3          1 NAP500   0.0000
    29 C4D         -2.2140    48.3960    32.5740 C.3          1 NAP500   0.0000
    30 O4D         -1.1670    48.7510    31.6250 O.3          1 NAP500   0.0000
    31 C3D         -1.7870    48.5830    34.0510 C.3          1 NAP500   0.0000
    32 O3D         -1.1030    47.4690    34.6980 O.3          1 NAP500   0.0000
    33 C2D         -0.8730    49.8220    33.7930 C.3          1 NAP500   0.0000
    34 O2D          0.0090    50.2240    34.7780 O.3          1 NAP500   0.0000
    35 C1D         -0.1490    49.3860    32.4860 C.3          1 NAP500   0.0000
    36 N1N          0.4040    50.4240    31.5190 N.ar         1 NAP500   1.0000
    37 C2N         -0.2550    51.6520    31.2640 C.ar         1 NAP500   0.0000
    38 C3N          0.3130    52.5940    30.3410 C.ar         1 NAP500   0.0000
    39 C7N         -0.3840    53.8820    30.0780 C.2          1 NAP500   0.0000
    40 O7N          0.2290    54.8470    29.6350 O.2          1 NAP500   0.0000
    41 N7N         -1.7100    53.8620    30.3660 N.am         1 NAP500   0.0000
    42 C4N          1.5500    52.3080    29.6690 C.ar         1 NAP500   0.0000
    43 C5N          2.1970    51.1120    29.9140 C.ar         1 NAP500   0.0000
    44 C6N          1.6450    50.2090    30.8040 C.ar         1 NAP500   0.0000
    45 P2B         -8.4620    38.9190    27.6630 P.3          1 NAP500   0.0000
    46 O1X         -7.2820    38.3150    26.9850 O.co2        1 NAP500   0.0000
    47 O2X         -9.1150    38.0290    28.6380 O.co2        1 NAP500  -1.0000
    48 O3X         -9.4130    39.4550    26.7170 O.co2        1 NAP500  -1.0000
    49 H5B1        -7.3349    45.3893    29.7798 H            1 NAP500   0.0000
    50 H5B2        -7.6618    44.7297    31.2374 H            1 NAP500   0.0000
    51 H4B         -8.6687    43.2260    30.2544 H            1 NAP500   0.0000
    52 H3B         -6.1293    42.4965    29.3729 H            1 NAP500   0.0000
    53 H5          -6.2041    40.9852    30.9312 H            1 NAP500   0.0000
    54 H2B         -6.8233    41.4468    27.7895 H            1 NAP500   0.0000
    55 H1B         -9.5144    41.9433    28.3175 H            1 NAP500   0.0000
    56 H8A         -6.7589    42.4079    25.6764 H            1 NAP500   0.0000
    57 H6A1       -11.2566    42.5291    21.4312 H            1 NAP500   0.0000
    58 H6A2        -9.5449    42.5605    21.6940 H            1 NAP500   0.0000
    59 H2A        -13.1688    42.2533    25.5377 H            1 NAP500   0.0000
    60 H5D1        -3.5875    49.8708    32.7865 H            1 NAP500   0.0000
    61 H5D2        -3.6707    49.0960    31.3514 H            1 NAP500   0.0000
    62 H4D         -2.3334    47.4091    32.4655 H            1 NAP500   0.0000
    63 H3D         -2.5781    48.8562    34.5983 H            1 NAP500   0.0000
    64 H16         -1.6975    46.6650    34.6936 H            1 NAP500   0.0000
    65 H2D         -1.4631    50.5988    33.5731 H            1 NAP500   0.0000
    66 H18          0.5184    51.0247    34.4628 H            1 NAP500   0.0000
    67 H1D          0.5646    48.7207    32.7056 H            1 NAP500   0.0000
    68 H2N         -1.1160    51.8628    31.7269 H            1 NAP500   0.0000
    69 H7N1        -2.2652    54.6812    30.2225 H            1 NAP500   0.0000
    70 H7N2        -2.1319    53.0280    30.7217 H            1 NAP500   0.0000
    71 H4N          1.9400    52.9697    29.0286 H            1 NAP500   0.0000
    72 H5N          3.0580    50.9010    29.4512 H            1 NAP500   0.0000
    73 H6N          2.1345    49.3519    30.9643 H            1 NAP500   0.0000
@<TRIPOS>BOND
     1    1    2      ar
     2    1    3      ar
     3    1    4       1
     4    1   23       1
     5    4    5       1
     6    5    6       1
     7    6    7       1
     8    6    8       1
     9    7   12       1
    10    8    9       1
    11    8   10       1
    12   10   11       1
    13   10   12       1
    14   11   45       1
    15   12   13       1
    16   13   14       1
    17   13   22       1
    18   14   15       2
    19   15   16       1
    20   16   17      ar
    21   16   22      ar
    22   17   18       1
    23   17   19      ar
    24   19   20      ar
    25   20   21      ar
    26   21   22      ar
    27   23   24       1
    28   24   25      ar
    29   24   26      ar
    30   24   27       1
    31   27   28       1
    32   28   29       1
    33   29   30       1
    34   29   31       1
    35   30   35       1
    36   31   32       1
    37   31   33       1
    38   33   34       1
    39   33   35       1
    40   35   36       1
    41   36   37      ar
    42   36   44      ar
    43   37   38      ar
    44   38   39       1
    45   38   42      ar
    46   39   40       2
    47   39   41      am
    48   42   43      ar
    49   43   44      ar
    50   45   46      ar
    51   45   47      ar
    52   45   48      ar
    53   43   72       1
    54    5   49       1
    55    5   50       1
    56    6   51       1
    57    8   52       1
    58    9   53       1
    59   10   54       1
    60   12   55       1
    61   14   56       1
    62   18   57       1
    63   18   58       1
    64   20   59       1
    65   44   73       1
    66   28   60       1
    67   28   61       1
    68   29   62       1
    69   31   63       1
    70   32   64       1
    71   33   65       1
    72   34   66       1
    73   35   67       1
    74   37   68       1
    75   41   69       1
    76   41   70       1
    77   42   71       1
@<TRIPOS>SUBSTRUCTURE
     1 NAP500      1 GROUP             4 B     NAP     0 **** NAP B 500
