@<TRIPOS>MOLECULE
1q3a_NGH_3_ligand
   46    46     1     0     0
SMALL
NO_CHARGES


@<TRIPOS>ATOM
     1 C1          22.7310   -21.5230     7.6570 C.3          1 NGH481   0.0000
     2 C2          21.3390   -21.1440     7.0210 C.3          1 NGH481   0.0000
     3 C3          20.0290   -21.9010     7.3720 C.3          1 NGH481   0.0000
     4 C4          20.0970   -23.1430     8.2640 C.3          1 NGH481   0.0000
     5 C5          21.5000   -23.5300     8.9180 C.3          1 NGH481   0.0000
     6 C6          22.8480   -22.8210     8.5230 C.3          1 NGH481   0.0000
     7 O1          19.2230   -22.2170     6.0340 O.3          1 NGH481   0.0000
     8 C7          19.3360   -21.0630     5.1860 C.3          1 NGH481   0.0000
     9 S1          24.1100   -23.0610     9.6930 S.o2         1 NGH481   0.0000
    10 O2          23.9280   -22.4390    11.1180 O.2          1 NGH481   0.0000
    11 O3          25.4930   -22.5140     9.0430 O.2          1 NGH481   0.0000
    12 N           24.2250   -24.6280     9.6260 N.3          1 NGH481   0.0000
    13 C9          24.2840   -25.7610    11.0510 C.3          1 NGH481   0.0000
    14 C10         24.5360   -25.1950     8.3550 C.3          1 NGH481   0.0000
    15 C11         23.7320   -26.4500     7.7980 C.2          1 NGH481   0.0000
    16 N1          22.3940   -26.7020     8.7740 N.am         1 NGH481   0.0000
    17 O4          21.5920   -27.3600     7.9800 O.3          1 NGH481  -1.0000
    18 O5          24.3650   -27.8880     7.9930 O.2          1 NGH481   0.0000
    19 C12         25.7900   -26.5510    10.8700 C.3          1 NGH481   0.0000
    20 C13         25.9530   -27.7070    11.8670 C.3          1 NGH481   0.0000
    21 C14         27.0040   -25.6290    10.5580 C.3          1 NGH481   0.0000
    22 H1          23.0037   -20.7576     8.2399 H            1 NGH481   0.0000
    23 H2          23.3810   -21.6157     6.9028 H            1 NGH481   0.0000
    24 H3          21.4530   -21.2298     6.0312 H            1 NGH481   0.0000
    25 H4          21.1777   -20.1855     7.2561 H            1 NGH481   0.0000
    26 H5          19.4668   -21.2431     7.8731 H            1 NGH481   0.0000
    27 H6          19.8041   -23.9219     7.7095 H            1 NGH481   0.0000
    28 H7          19.4493   -23.0050     9.0133 H            1 NGH481   0.0000
    29 H8          21.6338   -24.5030     8.7299 H            1 NGH481   0.0000
    30 H9          21.3934   -23.3925     9.9027 H            1 NGH481   0.0000
    31 H10         23.1617   -23.4562     7.8172 H            1 NGH481   0.0000
    32 H11         18.8399   -21.2262     4.3332 H            1 NGH481   0.0000
    33 H12         18.9467   -20.2680     5.6513 H            1 NGH481   0.0000
    34 H13         20.3001   -20.8915     4.9832 H            1 NGH481   0.0000
    35 H14         23.5299   -26.4169    11.0177 H            1 NGH481   0.0000
    36 H15         24.2473   -25.2543    11.9124 H            1 NGH481   0.0000
    37 H16         25.4974   -25.4674     8.3929 H            1 NGH481   0.0000
    38 H17         24.4230   -24.4638     7.6823 H            1 NGH481   0.0000
    39 H18         22.2468   -26.4206     9.7222 H            1 NGH481   0.0000
    40 H19         25.6686   -27.0369    10.0045 H            1 NGH481   0.0000
    41 H20         26.8428   -28.1423    11.7301 H            1 NGH481   0.0000
    42 H21         25.8952   -27.3528    12.8004 H            1 NGH481   0.0000
    43 H22         25.2271   -28.3789    11.7199 H            1 NGH481   0.0000
    44 H23         27.8310   -26.1846    10.4716 H            1 NGH481   0.0000
    45 H24         26.8398   -25.1402     9.7012 H            1 NGH481   0.0000
    46 H25         27.1214   -24.9697    11.3007 H            1 NGH481   0.0000
@<TRIPOS>BOND
     1    1    2       1
     2    1    6       1
     3    2    3       1
     4    3    4       1
     5    3    7       1
     6    4    5       1
     7    5    6       1
     8    6    9       1
     9    7    8       1
    10    9   10       2
    11    9   11       2
    12    9   12       1
    13   12   13       1
    14   12   14       1
    15   13   19       1
    16   14   15       1
    17   15   16      am
    18   15   18       2
    19   16   17       1
    20   19   20       1
    21   19   21       1
    22    1   22       1
    23    1   23       1
    24    2   24       1
    25    2   25       1
    26    3   26       1
    27    4   27       1
    28    4   28       1
    29    5   29       1
    30    5   30       1
    31    6   31       1
    32    8   32       1
    33    8   33       1
    34    8   34       1
    35   13   35       1
    36   13   36       1
    37   14   37       1
    38   14   38       1
    39   16   39       1
    40   21   46       1
    41   19   40       1
    42   20   41       1
    43   20   42       1
    44   20   43       1
    45   21   44       1
    46   21   45       1
@<TRIPOS>SUBSTRUCTURE
     1 NGH481      1 GROUP             4 C     NGH     0 **** NGH C 481
