@<TRIPOS>MOLECULE
2pjl_047_1_ligand
   54    57     1     0     0
SMALL
NO_CHARGES


@<TRIPOS>ATOM
     1 N1         -10.7060    -8.1570     7.7670 N.pl3        1 047600   0.0000
     2 C2         -11.4770    -7.3940     8.5860 C.ar         1 047600   0.0000
     3 C3         -12.7810    -7.8860     8.5740 C.ar         1 047600   0.0000
     4 C4         -12.6940    -9.0680     7.6420 C.2          1 047600   0.0000
     5 C5         -11.4160    -9.1330     7.2320 C.2          1 047600   0.0000
     6 C7         -13.8280    -9.9920     7.2580 C.3          1 047600   0.0000
     7 N10        -14.8930    -9.3050     6.4870 N.4          1 047600   1.0000
     8 C12        -14.5360    -8.8910     5.1120 C.3          1 047600   0.0000
     9 C15        -15.3780    -7.6800     4.6040 C.3          1 047600   0.0000
    10 C17        -16.8840    -8.0390     4.3870 C.3          1 047600   0.0000
    11 C20        -17.6740    -6.8420     3.7910 C.3          1 047600   0.0000
    12 C23        -17.4510    -5.5250     4.5910 C.3          1 047600   0.0000
    13 C26        -15.9300    -5.2290     4.8000 C.3          1 047600   0.0000
    14 C29        -15.2500    -6.4300     5.5240 C.3          1 047600   0.0000
    15 C32        -13.8120    -7.3010     9.3180 C.ar         1 047600   0.0000
    16 C34        -13.4690    -6.1870    10.0890 C.ar         1 047600   0.0000
    17 C36        -12.1600    -5.6780    10.1020 C.ar         1 047600   0.0000
    18 C38        -11.1390    -6.2790     9.3600 C.ar         1 047600   0.0000
    19 C40         -9.3690    -8.0080     7.5380 C.ar         1 047600   0.0000
    20 C41         -8.5690    -9.1470     7.6630 C.ar         1 047600   0.0000
    21 C43         -7.1920    -9.0840     7.4430 C.ar         1 047600   0.0000
    22 C45         -6.5890    -7.8740     7.0880 C.ar         1 047600   0.0000
    23 C46         -7.3820    -6.7210     6.9490 C.ar         1 047600   0.0000
    24 C48         -8.7680    -6.7900     7.1700 C.ar         1 047600   0.0000
    25 C50         -5.0710    -7.8710     6.8660 C.3          1 047600   0.0000
    26 H1         -11.0529    -9.8249     6.6080 H            1 047600   0.0000
    27 H2         -14.2300   -10.3685     8.0926 H            1 047600   0.0000
    28 H3         -13.4593   -10.7359     6.7006 H            1 047600   0.0000
    29 H4         -15.1570    -8.4847     6.9944 H            1 047600   0.0000
    30 H5         -14.6866    -9.6647     4.4967 H            1 047600   0.0000
    31 H6         -13.5691    -8.6361     5.0965 H            1 047600   0.0000
    32 H7         -15.0086    -7.4230     3.7110 H            1 047600   0.0000
    33 H8         -17.2884    -8.2896     5.2666 H            1 047600   0.0000
    34 H9         -16.9460    -8.8144     3.7586 H            1 047600   0.0000
    35 H10        -18.6491    -7.0634     3.8026 H            1 047600   0.0000
    36 H11        -17.3759    -6.6987     2.8473 H            1 047600   0.0000
    37 H12        -17.8909    -5.6099     5.4850 H            1 047600   0.0000
    38 H13        -17.8632    -4.7657     4.0875 H            1 047600   0.0000
    39 H14        -15.8261    -4.4046     5.3564 H            1 047600   0.0000
    40 H15        -15.4945    -5.0882     3.9109 H            1 047600   0.0000
    41 H16        -14.2847    -6.2258     5.6870 H            1 047600   0.0000
    42 H17        -15.7062    -6.6027     6.3969 H            1 047600   0.0000
    43 H18        -14.7447    -7.6611     9.2989 H            1 047600   0.0000
    44 H19        -14.1717    -5.7420    10.6442 H            1 047600   0.0000
    45 H20        -11.9542    -4.8694    10.6532 H            1 047600   0.0000
    46 H21        -10.2038    -5.9257     9.3817 H            1 047600   0.0000
    47 H22         -8.9889   -10.0193     7.9135 H            1 047600   0.0000
    48 H23         -6.6343    -9.9084     7.5398 H            1 047600   0.0000
    49 H24         -6.9594    -5.8517     6.6928 H            1 047600   0.0000
    50 H25         -9.3300    -5.9695     7.0652 H            1 047600   0.0000
    51 H26         -4.7721    -6.9493     6.6190 H            1 047600   0.0000
    52 H27         -4.6106    -8.1567     7.7065 H            1 047600   0.0000
    53 H28         -4.8408    -8.5051     6.1278 H            1 047600   0.0000
    54 H29        -15.6749    -9.9254     6.4262 H            1 047600   0.0000
@<TRIPOS>BOND
     1    1    2       1
     2    1    5       1
     3    1   19       1
     4    2    3      ar
     5    2   18      ar
     6    3    4       1
     7    3   15      ar
     8    4    5       2
     9    4    6       1
    10    6    7       1
    11    7    8       1
    12    8    9       1
    13    9   10       1
    14    9   14       1
    15   10   11       1
    16   11   12       1
    17   12   13       1
    18   13   14       1
    19   15   16      ar
    20   16   17      ar
    21   17   18      ar
    22   19   20      ar
    23   19   24      ar
    24   20   21      ar
    25   21   22      ar
    26   22   23      ar
    27   22   25       1
    28   23   24      ar
    29    5   26       1
    30    6   27       1
    31    6   28       1
    32    7   29       1
    33    8   30       1
    34    8   31       1
    35    9   32       1
    36   10   33       1
    37   10   34       1
    38   11   35       1
    39   11   36       1
    40   12   37       1
    41   12   38       1
    42   13   39       1
    43   13   40       1
    44   14   41       1
    45   14   42       1
    46   15   43       1
    47   16   44       1
    48   17   45       1
    49   18   46       1
    50   20   47       1
    51   21   48       1
    52   23   49       1
    53   24   50       1
    54   25   51       1
    55   25   52       1
    56   25   53       1
    57    7   54       1
@<TRIPOS>SUBSTRUCTURE
     1 047600      1 GROUP             4 A     047     0 **** 047 A 600
