@<TRIPOS>MOLECULE
3uim_ANP_1_ligand
   44    46     1     0     0
SMALL
NO_CHARGES


@<TRIPOS>ATOM
     1 PG           7.2150     4.8920   -10.3100 P.3          1 ANP1000   0.0000
     2 O1G          8.6860     4.4780   -10.6830 O.co2        1 ANP1000   0.0000
     3 O2G          7.1200     6.4530   -10.2390 O.co2        1 ANP1000  -1.0000
     4 O3G          6.8700     4.3320    -8.9610 O.co2        1 ANP1000  -1.0000
     5 PB           6.4320     2.8200   -12.0750 P.3          1 ANP1000   0.0000
     6 O1B          5.1630     2.2260   -12.7920 O.co2        1 ANP1000   0.0000
     7 O2B          6.7410     1.8770   -10.8890 O.co2        1 ANP1000  -1.0000
     8 N3B          6.1120     4.3400   -11.4510 N.3          1 ANP1000   0.0000
     9 PA           8.4650     1.6470   -13.5500 P.3          1 ANP1000   0.0000
    10 O1A          8.0360     1.0990   -14.8960 O.co2        1 ANP1000   0.0000
    11 O2A          8.3470     0.5470   -12.5120 O.co2        1 ANP1000  -1.0000
    12 O3A          7.5750     2.9050   -13.1540 O.3          1 ANP1000   0.0000
    13 O5'          9.9760     2.0690   -13.6250 O.3          1 ANP1000   0.0000
    14 C5'         10.8930     1.2840   -12.9370 C.3          1 ANP1000   0.0000
    15 C4'         12.2150     1.3040   -13.4600 C.3          1 ANP1000   0.0000
    16 O4'         12.2430     0.4910   -14.6740 O.3          1 ANP1000   0.0000
    17 C3'         12.4510     2.6940   -13.8660 C.3          1 ANP1000   0.0000
    18 O3'         13.3750     3.2870   -13.0380 O.3          1 ANP1000   0.0000
    19 C2'         12.8790     2.6390   -15.2720 C.3          1 ANP1000   0.0000
    20 O2'         14.0760     3.2630   -15.3980 O.3          1 ANP1000   0.0000
    21 C1'         13.0120     1.1890   -15.6090 C.3          1 ANP1000   0.0000
    22 N9          12.6570     0.8360   -16.9880 N.pl3        1 ANP1000   0.0000
    23 C8          11.4440     0.4500   -17.4160 C.2          1 ANP1000   0.0000
    24 N7          11.5070     0.1400   -18.7290 N.2          1 ANP1000   0.0000
    25 C5          12.7830     0.3230   -19.1420 C.ar         1 ANP1000   0.0000
    26 C6          13.4360     0.1670   -20.3690 C.ar         1 ANP1000   0.0000
    27 N6          12.7480    -0.2850   -21.5340 N.pl3        1 ANP1000   0.0000
    28 N1          14.7490     0.4500   -20.4220 N.ar         1 ANP1000   0.0000
    29 C2          15.4250     0.8710   -19.3450 C.ar         1 ANP1000   0.0000
    30 N3          14.8240     1.0310   -18.1650 N.ar         1 ANP1000   0.0000
    31 C4          13.5120     0.7630   -18.0370 C.ar         1 ANP1000   0.0000
    32 H3B          6.1012     4.9902   -12.2107 H            1 ANP1000   0.0000
    33 H5'1        10.5669     0.3388   -12.9548 H            1 ANP1000   0.0000
    34 H5'2        10.9290     1.6064   -11.9911 H            1 ANP1000   0.0000
    35 H4'         12.8866     0.9930   -12.7875 H            1 ANP1000   0.0000
    36 H3'         11.5905     3.2001   -13.8078 H            1 ANP1000   0.0000
    37 H6          12.9603     4.0780   -12.5882 H            1 ANP1000   0.0000
    38 H2'         12.1967     3.0722   -15.8609 H            1 ANP1000   0.0000
    39 H8          14.3694     3.6047   -14.5052 H            1 ANP1000   0.0000
    40 H1'         13.9679     0.9318   -15.4672 H            1 ANP1000   0.0000
    41 H10         10.6212     0.3999   -16.8499 H            1 ANP1000   0.0000
    42 H11         13.2412    -0.3871   -22.3979 H            1 ANP1000   0.0000
    43 H12         11.7725    -0.4998   -21.4868 H            1 ANP1000   0.0000
    44 H13         16.4016     1.0697   -19.4274 H            1 ANP1000   0.0000
@<TRIPOS>BOND
     1    1    2      ar
     2    1    3      ar
     3    1    4      ar
     4    1    8       1
     5    5    6      ar
     6    5    7      ar
     7    5    8       1
     8    5   12       1
     9    9   10      ar
    10    9   11      ar
    11    9   12       1
    12    9   13       1
    13   13   14       1
    14   14   15       1
    15   15   16       1
    16   15   17       1
    17   16   21       1
    18   17   18       1
    19   17   19       1
    20   19   20       1
    21   19   21       1
    22   21   22       1
    23   22   23       1
    24   22   31       1
    25   23   24       2
    26   24   25       1
    27   25   26      ar
    28   25   31      ar
    29   26   27       1
    30   26   28      ar
    31   28   29      ar
    32   29   30      ar
    33   30   31      ar
    34   29   44       1
    35   27   43       1
    36   27   42       1
    37    8   32       1
    38   23   41       1
    39   14   33       1
    40   14   34       1
    41   15   35       1
    42   17   36       1
    43   18   37       1
    44   19   38       1
    45   20   39       1
    46   21   40       1
@<TRIPOS>SUBSTRUCTURE
     1 ANP1000     1 GROUP             4 A     ANP     0 **** ANP A1000
