@<TRIPOS>MOLECULE
5cuq_NSC_1_ligand
   48    51     1     0     0
SMALL
NO_CHARGES


@<TRIPOS>ATOM
     1 C12          5.4150    -3.0610     4.9900 C.ar         1 NSC301   0.0000
     2 C3           6.5760    -2.8640     4.1130 C.ar         1 NSC301   0.0000
     3 C2           7.5020    -1.7760     3.9380 C.ar         1 NSC301   0.0000
     4 N1           7.4210    -0.5290     4.6920 N.pl3        1 NSC301   0.0000
     5 C7           8.5580    -1.9370     2.9450 C.ar         1 NSC301   0.0000
     6 C6           8.6500    -3.1280     2.1920 C.ar         1 NSC301   0.0000
     7 C8           9.7420    -3.3370     1.1330 C.3          1 NSC301   0.0000
     8 N5           7.8060    -4.0550     2.3920 N.ar         1 NSC301   0.0000
     9 C4           6.8250    -4.1840     3.1560 C.ar         1 NSC301   0.0000
    10 C9           5.7630    -5.1690     3.5090 C.ar         1 NSC301   0.0000
    11 C10          4.8830    -4.9810     4.3660 C.ar         1 NSC301   0.0000
    12 C11          4.7700    -4.0790     4.9900 C.ar         1 NSC301   0.0000
    13 N13          3.6080    -4.2090     5.8520 N.2          1 NSC301   0.0000
    14 C14          3.4680    -3.9690     7.2800 C.2          1 NSC301   0.0000
    15 O28          4.3670    -3.6230     7.9410 O.3          1 NSC301   0.0000
    16 N15          2.1230    -4.2120     7.8130 N.pl3        1 NSC301   0.0000
    17 C16          1.1650    -4.6580     6.7890 C.ar         1 NSC301   0.0000
    18 C17          0.7890    -6.0000     6.7230 C.ar         1 NSC301   0.0000
    19 C18         -0.1050    -6.4430     5.7520 C.ar         1 NSC301   0.0000
    20 C24         -0.5080    -7.7550     5.6560 C.ar         1 NSC301   0.0000
    21 N25          0.0030    -8.7400     6.5910 N.pl3        1 NSC301   0.0000
    22 C23         -1.3920    -8.1180     4.6710 C.ar         1 NSC301   0.0000
    23 C21         -1.8720    -7.1690     3.7830 C.ar         1 NSC301   0.0000
    24 C20         -2.8550    -7.5600     2.6840 C.3          1 NSC301   0.0000
    25 N22         -1.4720    -5.9040     3.8890 N.ar         1 NSC301   0.0000
    26 C19         -0.6140    -5.5350     4.8440 C.ar         1 NSC301   0.0000
    27 C26         -0.2270    -4.2110     4.9050 C.ar         1 NSC301   0.0000
    28 C27          0.6560    -3.7640     5.8740 C.ar         1 NSC301   0.0000
    29 H1           5.1496    -2.3230     5.6104 H            1 NSC301   0.0000
    30 H2           8.0904     0.1965     4.5319 H            1 NSC301   0.0000
    31 H3           6.6961    -0.4001     5.3687 H            1 NSC301   0.0000
    32 H4           9.2191    -1.2015     2.7969 H            1 NSC301   0.0000
    33 H5           9.6335    -4.2394     0.7160 H            1 NSC301   0.0000
    34 H6           9.6620    -2.6322     0.4281 H            1 NSC301   0.0000
    35 H7          10.6417    -3.2755     1.5652 H            1 NSC301   0.0000
    36 H8           5.7585    -6.0423     3.0219 H            1 NSC301   0.0000
    37 H9           4.2169    -5.7143     4.5021 H            1 NSC301   0.0000
    38 H10          1.8815    -4.0871     8.7753 H            1 NSC301   0.0000
    39 H11          1.1662    -6.6516     7.3811 H            1 NSC301   0.0000
    40 H12         -0.2894    -9.6938     6.5219 H            1 NSC301   0.0000
    41 H13          0.6475    -8.4650     7.3044 H            1 NSC301   0.0000
    42 H14         -1.6903    -9.0694     4.5941 H            1 NSC301   0.0000
    43 H15         -3.0897    -6.7519     2.1437 H            1 NSC301   0.0000
    44 H16         -2.4357    -8.2473     2.0908 H            1 NSC301   0.0000
    45 H17         -3.6840    -7.9372     3.0970 H            1 NSC301   0.0000
    46 H18         -0.5912    -3.5623     4.2367 H            1 NSC301   0.0000
    47 H19          0.9214    -2.8005     5.9087 H            1 NSC301   0.0000
    48 H20          4.2367    -3.4668     8.9201 H            1 NSC301   0.0000
@<TRIPOS>BOND
     1    1    2      ar
     2    1   12      ar
     3    2    3      ar
     4    2    9      ar
     5    3    4       1
     6    3    5      ar
     7    5    6      ar
     8    6    7       1
     9    6    8      ar
    10    8    9      ar
    11    9   10      ar
    12   10   11      ar
    13   11   12      ar
    14   12   13       1
    15   13   14       2
    16   14   15       1
    17   14   16       1
    18   16   17       1
    19   17   18      ar
    20   17   28      ar
    21   18   19      ar
    22   19   20      ar
    23   19   26      ar
    24   20   21       1
    25   20   22      ar
    26   22   23      ar
    27   23   24       1
    28   23   25      ar
    29   25   26      ar
    30   26   27      ar
    31   27   28      ar
    32    1   29       1
    33    4   30       1
    34    4   31       1
    35    5   32       1
    36    7   33       1
    37    7   34       1
    38    7   35       1
    39   10   36       1
    40   11   37       1
    41   28   47       1
    42   16   38       1
    43   18   39       1
    44   21   40       1
    45   21   41       1
    46   22   42       1
    47   24   43       1
    48   24   44       1
    49   24   45       1
    50   27   46       1
    51   15   48       1
@<TRIPOS>SUBSTRUCTURE
     1 NSC301      1 GROUP             4 A     NSC     0 **** NSC A 301
