@<TRIPOS>MOLECULE
1jed_ADP_1_ligand
   39    41     1     0     0
SMALL
NO_CHARGES


@<TRIPOS>ATOM
     1 PB          98.8650   193.3580   145.6500 P.3          1 ADP635   0.0000
     2 O1B         99.9080   193.5100   144.6130 O.co2        1 ADP635   0.0000
     3 O2B         97.4600   194.0720   145.2700 O.co2        1 ADP635  -1.0000
     4 O3B         99.3300   193.8560   146.9650 O.co2        1 ADP635  -1.0000
     5 PA          98.6830   190.7190   146.7510 P.3          1 ADP635   0.0000
     6 O1A         98.4210   191.3020   148.0750 O.co2        1 ADP635   0.0000
     7 O2A         97.7350   189.6430   146.4150 O.co2        1 ADP635  -1.0000
     8 O3A         98.5170   191.8620   145.6960 O.3          1 ADP635   0.0000
     9 O5'        100.2060   190.2280   146.5870 O.3          1 ADP635   0.0000
    10 C5'        101.3080   191.1120   146.8880 C.3          1 ADP635   0.0000
    11 C4'        102.5070   190.8490   145.9340 C.3          1 ADP635   0.0000
    12 O4'        102.6840   189.4420   145.7020 O.3          1 ADP635   0.0000
    13 C3'        102.3430   191.4710   144.5570 C.3          1 ADP635   0.0000
    14 O3'        103.5760   191.9980   144.0650 O.3          1 ADP635   0.0000
    15 C2'        101.8930   190.3250   143.6570 C.3          1 ADP635   0.0000
    16 O2'        102.1320   190.5320   142.2480 O.3          1 ADP635   0.0000
    17 C1'        102.6640   189.1840   144.2710 C.3          1 ADP635   0.0000
    18 N9         102.0840   187.8210   144.0280 N.pl3        1 ADP635   0.0000
    19 C8         100.9970   187.3120   144.6320 C.2          1 ADP635   0.0000
    20 N7         100.7880   186.0670   144.1940 N.2          1 ADP635   0.0000
    21 C5         101.7230   185.7730   143.3210 C.ar         1 ADP635   0.0000
    22 C6         102.0480   184.6590   142.5390 C.ar         1 ADP635   0.0000
    23 N6         101.3050   183.5480   142.6050 N.pl3        1 ADP635   0.0000
    24 N1         103.1350   184.7040   141.7020 N.ar         1 ADP635   0.0000
    25 C2         103.9200   185.8090   141.6060 C.ar         1 ADP635   0.0000
    26 N3         103.6200   186.8830   142.3580 N.ar         1 ADP635   0.0000
    27 C4         102.5600   186.9120   143.2070 C.ar         1 ADP635   0.0000
    28 H5'1       101.6012   190.9600   147.8319 H            1 ADP635   0.0000
    29 H5'2       101.0063   192.0594   146.7811 H            1 ADP635   0.0000
    30 H4'        103.3383   191.2128   146.3543 H            1 ADP635   0.0000
    31 H3'        101.6453   192.1870   144.5812 H            1 ADP635   0.0000
    32 H5         104.2973   191.8442   144.7403 H            1 ADP635   0.0000
    33 H2'        100.9157   190.1676   143.7990 H            1 ADP635   0.0000
    34 H7         101.8087   189.7370   141.7347 H            1 ADP635   0.0000
    35 H1'        103.6020   189.2034   143.9250 H            1 ADP635   0.0000
    36 H9         100.4324   187.7904   145.3046 H            1 ADP635   0.0000
    37 H10        101.5412   182.7545   142.0442 H            1 ADP635   0.0000
    38 H11        100.5135   183.5113   143.2151 H            1 ADP635   0.0000
    39 H12        104.7059   185.8234   140.9879 H            1 ADP635   0.0000
@<TRIPOS>BOND
     1    1    2      ar
     2    1    3      ar
     3    1    4      ar
     4    1    8       1
     5    5    6      ar
     6    5    7      ar
     7    5    8       1
     8    5    9       1
     9    9   10       1
    10   10   11       1
    11   11   12       1
    12   11   13       1
    13   12   17       1
    14   13   14       1
    15   13   15       1
    16   15   16       1
    17   15   17       1
    18   17   18       1
    19   18   19       1
    20   18   27       1
    21   19   20       2
    22   20   21       1
    23   21   22      ar
    24   21   27      ar
    25   22   23       1
    26   22   24      ar
    27   24   25      ar
    28   25   26      ar
    29   26   27      ar
    30   25   39       1
    31   23   38       1
    32   23   37       1
    33   10   28       1
    34   10   29       1
    35   11   30       1
    36   13   31       1
    37   14   32       1
    38   15   33       1
    39   16   34       1
    40   17   35       1
    41   19   36       1
@<TRIPOS>SUBSTRUCTURE
     1 ADP635      1 GROUP             4 A     ADP     0 **** ADP A 635
