@<TRIPOS>MOLECULE
2ow1_7MR_2_ligand
   42    43     1     0     0
SMALL
NO_CHARGES


@<TRIPOS>ATOM
     1 CAI         67.8320    21.0880    58.0600 C.ar         1 7MR502   0.0000
     2 CAH         68.2030    21.8470    59.1670 C.ar         1 7MR502   0.0000
     3 CAG         69.3400    22.6480    59.1140 C.ar         1 7MR502   0.0000
     4 CAR         70.1070    22.6870    57.9540 C.ar         1 7MR502   0.0000
     5 CAS         69.7340    21.9280    56.8480 C.ar         1 7MR502   0.0000
     6 CAT         68.5940    21.1300    56.8960 C.ar         1 7MR502   0.0000
     7 OAU         68.1860    20.4600    55.7820 O.3          1 7MR502   0.0000
     8 CAV         68.6420    19.1860    55.6130 C.ar         1 7MR502   0.0000
     9 CAJ         67.8770    18.3010    54.8570 C.ar         1 7MR502   0.0000
    10 CAK         68.3350    17.0120    54.5940 C.ar         1 7MR502   0.0000
    11 CAW         69.8740    18.7680    56.1110 C.ar         1 7MR502   0.0000
    12 CAX         70.3360    17.4800    55.8530 C.ar         1 7MR502   0.0000
    13 CAL         69.5680    16.6000    55.0950 C.ar         1 7MR502   0.0000
    14 SAM         70.1350    14.9620    54.8420 S.o2         1 7MR502   0.0000
    15 OAY         70.5030    14.3840    56.1760 O.2          1 7MR502   0.0000
    16 OAC         69.0500    14.1300    54.2240 O.2          1 7MR502   0.0000
    17 CAN         71.6200    14.9540    53.7680 C.3          1 7MR502   0.0000
    18 CAO         71.3540    14.8990    52.2600 C.3          1 7MR502   0.0000
    19 CAP         72.6690    14.7070    51.4960 C.3          1 7MR502   0.0000
    20 FBA         72.4160    14.6320    50.1920 F            1 7MR502   0.0000
    21 FAF         73.4800    15.7360    51.7230 F            1 7MR502   0.0000
    22 FAQ         73.2590    13.5840    51.8940 F            1 7MR502   0.0000
    23 NAZ         70.4630    13.7650    51.9670 N.4          1 7MR502   1.0000
    24 CAE         70.6920    16.1940    51.7770 C.2          1 7MR502   0.0000
    25 OAB         71.0920    17.2940    52.1560 O.2          1 7MR502   0.0000
    26 NAD         69.7050    16.0240    50.9010 N.am         1 7MR502   0.0000
    27 OAA         69.0220    17.1550    50.3780 O.3          1 7MR502  -1.0000
    28 HAI         67.0161    20.5113    58.1014 H            1 7MR502   0.0000
    29 HAH         67.6519    21.8165    60.0009 H            1 7MR502   0.0000
    30 HAG         69.6051    23.1945    59.9084 H            1 7MR502   0.0000
    31 HAR         70.9257    23.2598    57.9146 H            1 7MR502   0.0000
    32 HAS         70.2873    21.9561    56.0155 H            1 7MR502   0.0000
    33 HAJ         66.9902    18.5938    54.4995 H            1 7MR502   0.0000
    34 HAK         67.7806    16.3844    54.0474 H            1 7MR502   0.0000
    35 HAW         70.4293    19.3959    56.6564 H            1 7MR502   0.0000
    36 HAX         71.2215    17.1863    56.2130 H            1 7MR502   0.0000
    37 HAN1        72.1701    14.1552    54.0116 H            1 7MR502   0.0000
    38 HAN2        72.1398    15.7870    53.9574 H            1 7MR502   0.0000
    39 HAZ1        69.5112    14.0685    52.0125 H            1 7MR502   0.0000
    40 HAZ2        70.6581    13.4159    51.0504 H            1 7MR502   0.0000
    41 HAD         69.4446    15.1029    50.6115 H            1 7MR502   0.0000
    42 HAZ3        70.6142    13.0400    52.6390 H            1 7MR502   0.0000
@<TRIPOS>BOND
     1    1    2      ar
     2    1    6      ar
     3    2    3      ar
     4    3    4      ar
     5    4    5      ar
     6    5    6      ar
     7    6    7       1
     8    7    8       1
     9    8    9      ar
    10    8   11      ar
    11    9   10      ar
    12   10   13      ar
    13   11   12      ar
    14   12   13      ar
    15   13   14       1
    16   14   15       2
    17   14   16       2
    18   14   17       1
    19   17   18       1
    20   18   19       1
    21   18   23       1
    22   18   24       1
    23   19   20       1
    24   19   21       1
    25   19   22       1
    26   24   25       2
    27   24   26      am
    28   26   27       1
    29    1   28       1
    30    2   29       1
    31    3   30       1
    32    4   31       1
    33    5   32       1
    34    9   33       1
    35   10   34       1
    36   11   35       1
    37   12   36       1
    38   17   37       1
    39   17   38       1
    40   23   39       1
    41   23   40       1
    42   26   41       1
    43   23   42       1
@<TRIPOS>SUBSTRUCTURE
     1 7MR502      1 GROUP             4 B     7MR     0 **** 7MR B 502
