@<TRIPOS>MOLECULE
5c1m_4VO_1_ligand
   68    74     1     0     0
SMALL
USER_CHARGES


@<TRIPOS>ATOM
     1 CAP          2.3670    15.4790   -57.7720 C.3          1 4VO401   0.0000
     2 CAO          1.9260    15.5610   -56.2920 C.3          1 4VO401   0.0000
     3 NBB          1.1310    16.7970   -56.0740 N.4          1 4VO401   1.0000
     4 CAB          0.7860    16.9300   -54.6350 C.3          1 4VO401   0.0000
     5 CAZ         -0.0920    16.8030   -56.9170 C.3          1 4VO401   0.0000
     6 CAQ         -1.0260    15.5760   -56.6780 C.3          1 4VO401   0.0000
     7 CAW         -0.7240    14.4520   -57.4860 C.ar         1 4VO401   0.0000
     8 CAM         -1.4980    13.3080   -57.3180 C.ar         1 4VO401   0.0000
     9 CAL         -1.2710    12.1570   -58.0720 C.ar         1 4VO401   0.0000
    10 CAU         -0.2530    12.1530   -59.0150 C.ar         1 4VO401   0.0000
    11 OAD         -0.0150    11.0300   -59.7590 O.3          1 4VO401   0.0000
    12 CAN          0.5220    13.2940   -59.1890 C.ar         1 4VO401   0.0000
    13 CAX          0.2990    14.4640   -58.4550 C.ar         1 4VO401   0.0000
    14 CBF          1.1300    15.6050   -58.6990 C.3          1 4VO401   0.0000
    15 CBA          1.5630    15.7190   -60.2190 C.3          1 4VO401   0.0000
    16 NAS          2.9110    16.3220   -60.5050 N.4          1 4VO401   1.0000
    17 CBE          0.7060    16.8040   -60.9230 C.3          1 4VO401   0.0000
    18 OAT          0.9270    16.7990   -62.3580 O.3          1 4VO401   0.0000
    19 CAA          0.5320    15.5530   -62.9460 C.3          1 4VO401   0.0000
    20 CAF         -0.6630    16.7450   -60.5930 C.3          1 4VO401   0.0000
    21 CAE         -0.8980    16.7960   -59.2190 C.3          1 4VO401   0.0000
    22 CBD          0.2500    16.8410   -58.4010 C.3          1 4VO401   0.0000
    23 CAR          0.9020    18.1530   -58.7940 C.3          1 4VO401   0.0000
    24 CBC          1.2960    18.0670   -60.2780 C.3          1 4VO401   0.0000
    25 CAC          0.8330    19.3270   -61.0260 C.3          1 4VO401   0.0000
    26 CAY          2.8120    17.7520   -60.1860 C.3          1 4VO401   0.0000
    27 CAV          3.7260    18.8390   -60.1830 C.ar         1 4VO401   0.0000
    28 CAJ          4.0280    19.6960   -61.2230 C.ar         1 4VO401   0.0000
    29 CAH          4.9290    20.7350   -61.0030 C.ar         1 4VO401   0.0000
    30 CAG          5.5380    20.9230   -59.7670 C.ar         1 4VO401   0.0000
    31 CAI          5.2390    20.0640   -58.7180 C.ar         1 4VO401   0.0000
    32 CAK          4.3370    19.0320   -58.9380 C.ar         1 4VO401   0.0000
    33 HAP1         2.8162    14.6007   -57.9360 H            1 4VO401   0.0000
    34 HAP2         3.0062    16.2223   -57.9692 H            1 4VO401   0.0000
    35 HAO1         2.7351    15.5783   -55.7046 H            1 4VO401   0.0000
    36 HAO2         1.3676    14.7626   -56.0668 H            1 4VO401   0.0000
    37 HAB1         0.2513    17.7636   -54.4961 H            1 4VO401   0.0000
    38 HAB2         0.2488    16.1374   -54.3464 H            1 4VO401   0.0000
    39 HAB3         1.6256    16.9785   -54.0940 H            1 4VO401   0.0000
    40 HAZ         -0.6103    17.6302   -56.7001 H            1 4VO401   0.0000
    41 HAQ1        -1.9669    15.8559   -56.8686 H            1 4VO401   0.0000
    42 HAQ2        -0.9471    15.3035   -55.7191 H            1 4VO401   0.0000
    43 HAM         -2.2340    13.3112   -56.6410 H            1 4VO401   0.0000
    44 HAL         -1.8358    11.3433   -57.9346 H            1 4VO401   0.0000
    45 HAD         -0.5745    10.2124   -59.6232 H            1 4VO401   0.0000
    46 HAN          1.2628    13.2779   -59.8605 H            1 4VO401   0.0000
    47 HBA          1.4654    14.8375   -60.6809 H            1 4VO401   0.0000
    48 HAS1         3.1453    16.1998   -61.4695 H            1 4VO401   0.0000
    49 HAA1         0.6967    15.5826   -63.9319 H            1 4VO401   0.0000
    50 HAA2         1.0646    14.8097   -62.5412 H            1 4VO401   0.0000
    51 HAA3        -0.4409    15.3974   -62.7751 H            1 4VO401   0.0000
    52 HAF1        -1.0394    15.8895   -60.9486 H            1 4VO401   0.0000
    53 HAF2        -1.1278    17.5183   -61.0242 H            1 4VO401   0.0000
    54 HAE1        -1.4225    15.9827   -58.9671 H            1 4VO401   0.0000
    55 HAE2        -1.4410    17.6144   -59.0308 H            1 4VO401   0.0000
    56 HAR1         1.7171    18.3068   -58.2355 H            1 4VO401   0.0000
    57 HAR2         0.2577    18.9056   -58.6577 H            1 4VO401   0.0000
    58 HAC1         1.2273    20.1366   -60.5912 H            1 4VO401   0.0000
    59 HAC2         1.1352    19.2794   -61.9781 H            1 4VO401   0.0000
    60 HAC3        -0.1649    19.3850   -60.9955 H            1 4VO401   0.0000
    61 HAY          2.8186    17.6247   -59.1942 H            1 4VO401   0.0000
    62 HAJ          3.6058    19.5723   -62.1210 H            1 4VO401   0.0000
    63 HAH          5.1433    21.3614   -61.7525 H            1 4VO401   0.0000
    64 HAG          6.1871    21.6721   -59.6346 H            1 4VO401   0.0000
    65 HAI          5.6650    20.1863   -57.8216 H            1 4VO401   0.0000
    66 HAK          4.1176    18.4094   -58.1868 H            1 4VO401   0.0000
    67 HBB          1.6942    17.5812   -56.3344 H            1 4VO401   0.0000
    68 HAS2         3.6096    15.8896   -59.9349 H            1 4VO401   0.0000
@<TRIPOS>BOND
     1    1    2       1
     2    1   14       1
     3    2    3       1
     4    3    4       1
     5    3    5       1
     6    5    6       1
     7    5   22       1
     8    6    7       1
     9    7    8      ar
    10    7   13      ar
    11    8    9      ar
    12    9   10      ar
    13   10   11       1
    14   10   12      ar
    15   12   13      ar
    16   13   14       1
    17   14   15       1
    18   14   22       1
    19   15   16       1
    20   15   17       1
    21   16   26       1
    22   17   18       1
    23   17   20       1
    24   17   24       1
    25   18   19       1
    26   20   21       1
    27   21   22       1
    28   22   23       1
    29   23   24       1
    30   24   25       1
    31   24   26       1
    32   26   27       1
    33   27   28      ar
    34   27   32      ar
    35   28   29      ar
    36   29   30      ar
    37   30   31      ar
    38   31   32      ar
    39    1   33       1
    40    1   34       1
    41    2   35       1
    42    2   36       1
    43    4   37       1
    44    4   38       1
    45    4   39       1
    46    5   40       1
    47    6   41       1
    48    6   42       1
    49    8   43       1
    50    9   44       1
    51   11   45       1
    52   12   46       1
    53   15   47       1
    54   16   48       1
    55   19   49       1
    56   19   50       1
    57   19   51       1
    58   20   52       1
    59   20   53       1
    60   21   54       1
    61   21   55       1
    62   23   56       1
    63   23   57       1
    64   25   58       1
    65   25   59       1
    66   25   60       1
    67   26   61       1
    68   28   62       1
    69   29   63       1
    70   30   64       1
    71   31   65       1
    72   32   66       1
    73    3   67       1
    74   16   68       1
@<TRIPOS>SUBSTRUCTURE
     1 4VO401      1 GROUP             4 A     4VO     0 **** 4VO A 401
