@<TRIPOS>MOLECULE
2whf_II4_1_ligand
   30    32     1     0     0
SMALL
NO_CHARGES


@<TRIPOS>ATOM
     1 C2          63.0930    18.6800     7.5400 C.ar         1 II41405   0.0000
     2 C3          62.7510    17.3300     7.6870 C.ar         1 II41405   0.0000
     3 C4          63.7350    16.4090     7.9910 C.ar         1 II41405   0.0000
     4 C5          65.1100    16.9280     8.0970 C.ar         1 II41405   0.0000
     5 C6          65.3920    18.2710     7.9260 C.ar         1 II41405   0.0000
     6 C9          69.4820    19.0200     8.3400 C.3          1 II41405   0.0000
     7 N7          65.8490    15.8650     8.3590 N.pl3        1 II41405   0.0000
     8 C8          65.1390    14.7200     8.4440 C.2          1 II41405   0.0000
     9 N9          63.8130    15.0630     8.2030 N.2          1 II41405   0.0000
    10 N2          62.1740    19.5870     7.2040 N.pl3        1 II41405   0.0000
    11 C10         69.0950    17.5660     8.5220 C.ar         1 II41405   0.0000
    12 C11         67.7520    17.2590     8.3970 C.ar         1 II41405   0.0000
    13 C30         64.4030    19.1770     7.6650 C.ar         1 II41405   0.0000
    14 C13         68.1000    14.9710     8.8080 C.ar         1 II41405   0.0000
    15 C80         67.1800    15.9940     8.5210 C.ar         1 II41405   0.0000
    16 C14         69.4770    15.2420     8.9500 C.ar         1 II41405   0.0000
    17 C15         69.9970    16.5400     8.8130 C.ar         1 II41405   0.0000
    18 H1          61.8023    17.0350     7.5729 H            1 II41405   0.0000
    19 H2          66.3388    18.5854     7.9947 H            1 II41405   0.0000
    20 H3          70.4708    19.1183     8.4524 H            1 II41405   0.0000
    21 H4          69.2189    19.3228     7.4240 H            1 II41405   0.0000
    22 H5          69.0117    19.5782     9.0235 H            1 II41405   0.0000
    23 H6          65.4956    13.8068     8.6411 H            1 II41405   0.0000
    24 H7          62.4331    20.5475     7.1027 H            1 II41405   0.0000
    25 H8          61.2261    19.3063     7.0535 H            1 II41405   0.0000
    26 H9          67.1317    18.0178     8.1985 H            1 II41405   0.0000
    27 H10         64.6021    20.1521     7.5670 H            1 II41405   0.0000
    28 H11         67.7719    14.0323     8.9136 H            1 II41405   0.0000
    29 H12         70.1014    14.4881     9.1542 H            1 II41405   0.0000
    30 H13         70.9745    16.7221     8.9196 H            1 II41405   0.0000
@<TRIPOS>BOND
     1    1    2      ar
     2    1   10       1
     3    1   13      ar
     4    2    3      ar
     5    3    4      ar
     6    3    9       1
     7    4    5      ar
     8    4    7       1
     9    5   13      ar
    10    6   11       1
    11    7    8       1
    12    7   15       1
    13    8    9       2
    14   11   12      ar
    15   11   17      ar
    16   12   15      ar
    17   14   15      ar
    18   14   16      ar
    19   16   17      ar
    20    2   18       1
    21    5   19       1
    22    6   20       1
    23    6   21       1
    24    6   22       1
    25    8   23       1
    26   10   24       1
    27   10   25       1
    28   12   26       1
    29   13   27       1
    30   14   28       1
    31   16   29       1
    32   17   30       1
@<TRIPOS>SUBSTRUCTURE
     1 II41405     1 GROUP             4 A     II4     0 **** II4 A1405
