@<TRIPOS>MOLECULE
./coach420/1ucd/ligand.pdb
 28 28 0 0 0
SMALL
GASTEIGER

@<TRIPOS>ATOM
      1  N1         8.1770   -5.9700   34.6160 N.ar  500  U5P500     -0.2534
      2  C2         9.4790   -5.5060   34.8550 C.ar  500  U5P500      0.3546
      3  N3         9.5760   -4.1820   35.1850 N.ar  500  U5P500     -0.1530
      4  C4         8.5230   -3.2680   35.3050 C.ar  500  U5P500      0.2846
      5  C5         7.2220   -3.8210   35.0500 C.ar  500  U5P500      0.0814
      6  C6         7.0870   -5.1010   34.7250 C.ar  500  U5P500      0.0870
      7  O2        10.4400   -6.2600   34.7630 O.2   500  U5P500     -0.2443
      8  O4         8.7930   -2.1310   35.5970 O.2   500  U5P500     -0.2650
      9  C1'        8.0390   -7.3890   34.2520 C.3   500  U5P500      0.2421
     10  C2'        7.2030   -8.2770   35.1530 C.3   500  U5P500      0.2338
     11  O2'        7.9050   -8.7100   36.3290 O.3   500  U5P500     -0.2155
     12  C3'        6.7320   -9.4090   34.2300 C.3   500  U5P500      0.2161
     13  C4'        6.5580   -8.6590   32.9220 C.3   500  U5P500      0.1803
     14  O3'        7.6860  -10.5060   34.1900 O.3   500  U5P500     -0.2175
     15  O4'        7.5680   -7.6010   32.9360 O.3   500  U5P500     -0.3306
     16  C5'        5.2310   -7.9710   32.6360 C.3   500  U5P500      0.1859
     17  O5'        5.1570   -7.4160   31.3150 O.3   500  U5P500     -0.2675
     18  P          4.5370   -8.2390   30.0800 P.3   500  U5P500      0.5327
     19  O1P        3.1030   -8.6860   30.2020 O.3   500  U5P500     -0.1145
     20  O2P        5.3150   -9.4880   29.8420 O.3   500  U5P500     -0.1145
     21  O3P        4.8570   -7.2040   28.8430 O.2   500  U5P500     -0.2224
     22  C2        -5.9480   -7.5090   25.3400 C.2   501  URA501      0.3273
     23  O2        -6.9130   -7.5200   24.5960 O.2   501  URA501     -0.2628
     24  N3        -4.7140   -6.9600   25.0400 N.am  501  URA501     -0.1332
     25  C4        -3.5810   -6.9320   25.8810 C.2   501  URA501      0.2718
     26  O4        -2.5630   -6.4070   25.4630 O.2   501  URA501     -0.2679
     27  C5        -3.7840   -7.5480   27.1660 C.2   501  URA501      0.0599
     28  C6        -4.9590   -8.0820   27.4790 C.2   501  URA501      0.0049
@<TRIPOS>BOND
     1     1     9    1
     2     1     6   ar
     3     1     2   ar
     4     2     7    2
     5     2     3   ar
     6     3     4   ar
     7     4     5   ar
     8     4     8    2
     9     5     6   ar
    10     9    15    1
    11     9    10    1
    12    10    12    1
    13    10    11    1
    14    12    13    1
    15    12    14    1
    16    13    16    1
    17    13    15    1
    18    16    17    1
    19    17    18    1
    20    18    21    2
    21    18    20    1
    22    18    19    1
    23    22    23    2
    24    22    24   am
    25    24    25   am
    26    25    26    2
    27    25    27    1
    28    27    28    2
