@<TRIPOS>MOLECULE
2iux_NXA_1_ligand
   14    13     1     0     0
SMALL
NO_CHARGES


@<TRIPOS>ATOM
     1 N           42.2800    34.6450    43.5350 N.pl3        1 NXA1624   0.0000
     2 CA          41.0810    34.7920    42.6390 C.3          1 NXA1624   0.0000
     3 C           40.0030    33.6930    42.4630 C.2          1 NXA1624   0.0000
     4 O           40.2620    32.6360    43.1630 O.co2        1 NXA1624   0.0000
     5 CB          41.7120    35.0380    41.2790 C.3          1 NXA1624   0.0000
     6 OD1         40.8690    34.3650    45.4630 O.co2        1 NXA1624   0.0000
     7 OD2         43.1860    34.3220    45.5310 O.co2        1 NXA1624  -1.0000
     8 C1          42.0340    34.4370    44.8920 C.2          1 NXA1624   0.0000
     9 OXT         38.9250    33.5560    41.8010 O.co2        1 NXA1624  -1.0000
    10 H1          43.2113    34.6942    43.1742 H            1 NXA1624   0.0000
    11 HA          40.6098    35.6326    42.9061 H            1 NXA1624   0.0000
    12 HB1         40.9928    35.1523    40.5936 H            1 NXA1624   0.0000
    13 HB2         42.2717    35.8658    41.3161 H            1 NXA1624   0.0000
    14 HB3         42.2867    34.2578    41.0322 H            1 NXA1624   0.0000
@<TRIPOS>BOND
     1    1    2       1
     2    1    8       1
     3    2    3       1
     4    2    5       1
     5    3    4      ar
     6    3    9      ar
     7    6    8      ar
     8    7    8      ar
     9    1   10       1
    10    2   11       1
    11    5   14       1
    12    5   12       1
    13    5   13       1
@<TRIPOS>SUBSTRUCTURE
     1 NXA1624     1 GROUP             4 A     NXA     0 **** NXA A1624
