@<TRIPOS>MOLECULE
1jnz_FAD_2_ligand
   85    90     1     0     0
SMALL
NO_CHARGES


@<TRIPOS>ATOM
     1 PA          41.7780     0.5330    81.7140 P.3          1 FAD3000   0.0000
     2 O1A         42.9970     0.7600    81.2080 O.co2        1 FAD3000   0.0000
     3 O2A         41.6990     0.5090    83.1650 O.co2        1 FAD3000  -1.0000
     4 O5B         40.8820     1.8180    81.1620 O.3          1 FAD3000   0.0000
     5 C5B         39.6220     2.2510    81.2290 C.3          1 FAD3000   0.0000
     6 C4B         39.3990     3.7750    80.9670 C.3          1 FAD3000   0.0000
     7 O4B         37.9990     4.1390    81.0420 O.3          1 FAD3000   0.0000
     8 C3B         40.3860     4.6400    81.9340 C.3          1 FAD3000   0.0000
     9 O3B         41.0880     5.5990    81.1190 O.3          1 FAD3000   0.0000
    10 C2B         39.2730     5.0740    82.8830 C.3          1 FAD3000   0.0000
    11 O2B         39.3770     6.5140    83.4240 O.3          1 FAD3000   0.0000
    12 C1B         37.9080     5.3110    81.9040 C.3          1 FAD3000   0.0000
    13 N9A         36.5870     5.4800    82.3030 N.pl3        1 FAD3000   0.0000
    14 C8A         35.9310     4.7100    83.2870 C.2          1 FAD3000   0.0000
    15 N7A         34.7200     4.9860    83.4700 N.2          1 FAD3000   0.0000
    16 C5A         34.4570     5.9610    82.6740 C.ar         1 FAD3000   0.0000
    17 C6A         33.2270     6.8050    82.3560 C.ar         1 FAD3000   0.0000
    18 N6A         32.0870     6.5140    83.0210 N.pl3        1 FAD3000   0.0000
    19 N1A         33.3020     7.8690    81.3300 N.ar         1 FAD3000   0.0000
    20 C2A         34.5250     8.1780    80.5780 C.ar         1 FAD3000   0.0000
    21 N3A         35.7570     7.4040    80.8290 N.ar         1 FAD3000   0.0000
    22 C4A         35.6860     6.3260    81.8660 C.ar         1 FAD3000   0.0000
    23 N1          48.7520    -6.4430    82.1380 N.2          1 FAD3000   0.0000
    24 C2          49.9440    -6.7360    81.4320 C.2          1 FAD3000   0.0000
    25 O2          49.9610    -6.9550    80.2900 O.2          1 FAD3000   0.0000
    26 N3          51.1020    -6.8360    82.3300 N.pl3        1 FAD3000   0.0000
    27 C4          51.0650    -6.6130    83.8180 C.2          1 FAD3000   0.0000
    28 O4          52.0840    -6.6270    84.3440 O.3          1 FAD3000   0.0000
    29 C4X         49.7620    -6.2760    84.4730 C.2          1 FAD3000   0.0000
    30 N5          49.5980    -5.9210    85.8450 N.pl3        1 FAD3000   0.0000
    31 C5X         48.5250    -5.2150    86.4480 C.ar         1 FAD3000   0.0000
    32 C6          48.7450    -4.6270    87.6670 C.ar         1 FAD3000   0.0000
    33 C7          47.7930    -3.5800    88.2630 C.ar         1 FAD3000   0.0000
    34 C7M         48.1920    -3.0800    89.5350 C.3          1 FAD3000   0.0000
    35 C8          46.4090    -3.1300    87.4500 C.ar         1 FAD3000   0.0000
    36 C8M         45.3310    -2.2600    87.8260 C.3          1 FAD3000   0.0000
    37 C9          46.1770    -3.8000    86.2160 C.ar         1 FAD3000   0.0000
    38 C9A         47.2230    -4.9200    85.5770 C.ar         1 FAD3000   0.0000
    39 N10         47.3020    -5.5370    84.1130 N.pl3        1 FAD3000   0.0000
    40 C10         48.5610    -6.1880    83.5270 C.2          1 FAD3000   0.0000
    41 C1'         46.2540    -5.4830    83.4860 C.3          1 FAD3000   0.0000
    42 C2'         45.9930    -4.4020    82.4450 C.3          1 FAD3000   0.0000
    43 O2'         46.2330    -3.2150    83.0590 O.3          1 FAD3000   0.0000
    44 C3'         44.4570    -4.4500    81.9390 C.3          1 FAD3000   0.0000
    45 O3'         44.2340    -5.6830    81.4230 O.3          1 FAD3000   0.0000
    46 C4'         44.1770    -3.3910    80.9500 C.3          1 FAD3000   0.0000
    47 O4'         44.4930    -2.0340    81.3850 O.3          1 FAD3000   0.0000
    48 C5'         42.5570    -3.2470    80.8640 C.3          1 FAD3000   0.0000
    49 O5'         42.2350    -2.3080    79.8230 O.3          1 FAD3000   0.0000
    50 P           40.7330    -1.6610    79.7710 P.3          1 FAD3000   0.0000
    51 O1P         39.6900    -2.6620    80.0490 O.co2        1 FAD3000   0.0000
    52 O2P         40.6610    -0.6470    78.6390 O.co2        1 FAD3000  -1.0000
    53 O3P         41.1790    -0.5480    80.5600 O.3          1 FAD3000   0.0000
    54 H5B1        39.2776     2.0457    82.1451 H            1 FAD3000   0.0000
    55 H5B2        39.0892     1.7442    80.5513 H            1 FAD3000   0.0000
    56 H4B         39.6915     3.9507    80.0270 H            1 FAD3000   0.0000
    57 H3B         41.0325     4.0386    82.4034 H            1 FAD3000   0.0000
    58 H5          40.4282     6.2034    80.6725 H            1 FAD3000   0.0000
    59 H2B         39.1095     4.4057    83.6087 H            1 FAD3000   0.0000
    60 H7          39.8356     7.0915    82.7486 H            1 FAD3000   0.0000
    61 H1B         38.1210     6.0960    81.3223 H            1 FAD3000   0.0000
    62 H8A         36.3991     3.9930    83.8036 H            1 FAD3000   0.0000
    63 H6A1        31.2563     7.0418    82.8440 H            1 FAD3000   0.0000
    64 H6A2        32.0742     5.7709    83.6901 H            1 FAD3000   0.0000
    65 H2A         34.5233     8.9108    79.8976 H            1 FAD3000   0.0000
    66 H7M1        47.5241    -2.4072    89.8531 H            1 FAD3000   0.0000
    67 H7M2        48.2422    -3.8348    90.1890 H            1 FAD3000   0.0000
    68 H7M3        49.0899    -2.6469    89.4562 H            1 FAD3000   0.0000
    69 H8M1        44.6605    -2.2206    87.0851 H            1 FAD3000   0.0000
    70 H8M2        44.8929    -2.6106    88.6537 H            1 FAD3000   0.0000
    71 H8M3        45.6886    -1.3427    88.0011 H            1 FAD3000   0.0000
    72 H1'1        45.5249    -5.3997    84.1654 H            1 FAD3000   0.0000
    73 H1'2        46.1672    -6.3578    83.0094 H            1 FAD3000   0.0000
    74 H2'         46.6129    -4.5174    81.6688 H            1 FAD3000   0.0000
    75 H22         45.6528    -2.5076    82.6554 H            1 FAD3000   0.0000
    76 H3'         43.8558    -4.3191    82.7273 H            1 FAD3000   0.0000
    77 H24         43.2734    -5.9294    81.5516 H            1 FAD3000   0.0000
    78 H4'         44.5796    -3.5989    80.0586 H            1 FAD3000   0.0000
    79 H26         43.6628    -1.4768    81.3683 H            1 FAD3000   0.0000
    80 H5'1        42.2012    -2.9162    81.7381 H            1 FAD3000   0.0000
    81 H5'2        42.1504    -4.1360    80.6535 H            1 FAD3000   0.0000
    82 H29         51.9838    -7.0705    81.9208 H            1 FAD3000   0.0000
    83 H30         49.5569    -4.8902    88.1881 H            1 FAD3000   0.0000
    84 H31         45.3425    -3.5855    85.7085 H            1 FAD3000   0.0000
    85 H32         52.9181    -6.7802    83.8141 H            1 FAD3000   0.0000
@<TRIPOS>BOND
     1   32   83       1
     2   48   81       1
     3    1    2      ar
     4    1    3      ar
     5    1    4       1
     6    1   53       1
     7    4    5       1
     8    5    6       1
     9    6    7       1
    10    6    8       1
    11    7   12       1
    12    8    9       1
    13    8   10       1
    14   10   11       1
    15   10   12       1
    16   12   13       1
    17   13   14       1
    18   13   22       1
    19   14   15       2
    20   15   16       1
    21   16   17      ar
    22   16   22      ar
    23   17   18       1
    24   17   19      ar
    25   19   20      ar
    26   20   21      ar
    27   21   22      ar
    28   23   24       1
    29   23   40       2
    30   24   25       2
    31   24   26       1
    32   26   27       1
    33   27   28       1
    34   27   29       2
    35   29   30       1
    36   29   40       1
    37   30   31       1
    38   31   32      ar
    39   31   38      ar
    40   32   33      ar
    41   33   34       1
    42   33   35      ar
    43   35   36       1
    44   35   37      ar
    45   37   38      ar
    46   38   39       1
    47   39   40       1
    48   39   41       1
    49   41   42       1
    50   42   43       1
    51   42   44       1
    52   44   45       1
    53   44   46       1
    54   46   47       1
    55   46   48       1
    56   48   49       1
    57   49   50       1
    58   50   51      ar
    59   50   52      ar
    60   50   53       1
    61   37   84       1
    62    5   54       1
    63    5   55       1
    64    6   56       1
    65    8   57       1
    66    9   58       1
    67   10   59       1
    68   11   60       1
    69   12   61       1
    70   14   62       1
    71   18   63       1
    72   18   64       1
    73   20   65       1
    74   48   80       1
    75   47   79       1
    76   34   66       1
    77   34   67       1
    78   34   68       1
    79   36   69       1
    80   36   70       1
    81   36   71       1
    82   46   78       1
    83   41   72       1
    84   41   73       1
    85   42   74       1
    86   43   75       1
    87   44   76       1
    88   45   77       1
    89   28   85       1
    90   26   82       1
@<TRIPOS>SUBSTRUCTURE
     1 FAD3000     1 GROUP             4 C     FAD     0 **** FAD C3000
