@<TRIPOS>MOLECULE
5hgc_HCY_1_ligand
   56    59     1     0     0
SMALL
NO_CHARGES


@<TRIPOS>ATOM
     1 C1          25.7830    58.1600    27.7680 C.3          1 HCY501   0.0000
     2 C2          25.1330    59.4320    27.2300 C.3          1 HCY501   0.0000
     3 C3          24.3960    60.1910    28.3100 C.2          1 HCY501   0.0000
     4 C4          24.6200    59.8800    29.7420 C.2          1 HCY501   0.0000
     5 C5          25.7010    59.1800    30.1060 C.2          1 HCY501   0.0000
     6 C6          26.1800    59.2620    31.5390 C.3          1 HCY501   0.0000
     7 C7          26.4640    57.8450    32.0860 C.3          1 HCY501   0.0000
     8 C8          27.2150    56.8970    31.1440 C.3          1 HCY501   0.0000
     9 C9          26.5460    56.8940    29.7520 C.3          1 HCY501   0.0000
    10 C10         26.4700    58.3040    29.1240 C.3          1 HCY501   0.0000
    11 C12         27.2140    54.3560    29.4460 C.3          1 HCY501   0.0000
    12 C11         27.0300    55.7460    28.7980 C.3          1 HCY501   0.0000
    13 C13         27.9360    54.4500    30.8240 C.3          1 HCY501   0.0000
    14 C14         27.2010    55.4830    31.6810 C.3          1 HCY501   0.0000
    15 C15         27.6160    55.1770    33.1000 C.3          1 HCY501   0.0000
    16 C16         27.8080    53.6670    33.1520 C.3          1 HCY501   0.0000
    17 C17         27.7940    53.1680    31.6850 C.3          1 HCY501   0.0000
    18 C18         29.4530    54.7800    30.7050 C.3          1 HCY501   0.0000
    19 C19         27.8310    59.0060    28.9240 C.3          1 HCY501   0.0000
    20 C20         28.8140    52.0760    31.4210 C.2          1 HCY501   0.0000
    21 C21         28.5180    50.9710    30.4280 C.3          1 HCY501   0.0000
    22 O1          23.6660    61.1070    27.9880 O.2          1 HCY501   0.0000
    23 O2          28.3020    56.2070    28.3320 O.3          1 HCY501   0.0000
    24 O3          26.5360    52.5060    31.4200 O.3          1 HCY501   0.0000
    25 O4          29.8890    52.0700    32.0010 O.2          1 HCY501   0.0000
    26 O5          29.7710    50.7680    29.7770 O.3          1 HCY501   0.0000
    27 H1          26.4679    57.8583    27.1048 H            1 HCY501   0.0000
    28 H2          25.0721    57.4620    27.8540 H            1 HCY501   0.0000
    29 H3          24.4849    59.1838    26.5100 H            1 HCY501   0.0000
    30 H4          25.8447    60.0221    26.8489 H            1 HCY501   0.0000
    31 H5          23.9669    60.1916    30.4322 H            1 HCY501   0.0000
    32 H6          25.4751    59.6975    32.0989 H            1 HCY501   0.0000
    33 H7          27.0187    59.8053    31.5768 H            1 HCY501   0.0000
    34 H8          25.5858    57.4218    32.3091 H            1 HCY501   0.0000
    35 H9          27.0083    57.9425    32.9192 H            1 HCY501   0.0000
    36 H10         28.1620    57.2052    31.0533 H            1 HCY501   0.0000
    37 H11         25.5920    56.6630    29.9431 H            1 HCY501   0.0000
    38 H12         27.7588    53.7831    28.8337 H            1 HCY501   0.0000
    39 H13         26.3146    53.9397    29.5797 H            1 HCY501   0.0000
    40 H14         26.4009    55.6705    28.0243 H            1 HCY501   0.0000
    41 H15         26.2407    55.2077    31.6362 H            1 HCY501   0.0000
    42 H16         26.9032    55.4608    33.7414 H            1 HCY501   0.0000
    43 H17         28.4708    55.6457    33.3228 H            1 HCY501   0.0000
    44 H18         27.0642    53.2422    33.6680 H            1 HCY501   0.0000
    45 H19         28.6823    53.4450    33.5836 H            1 HCY501   0.0000
    46 H20         29.8567    54.8263    31.6187 H            1 HCY501   0.0000
    47 H21         29.9090    54.0652    30.1749 H            1 HCY501   0.0000
    48 H22         29.5675    55.6605    30.2450 H            1 HCY501   0.0000
    49 H23         28.2883    59.1046    29.8078 H            1 HCY501   0.0000
    50 H24         28.4020    58.4582    28.3125 H            1 HCY501   0.0000
    51 H25         27.6840    59.9098    28.5221 H            1 HCY501   0.0000
    52 H26         27.8169    51.2557    29.7742 H            1 HCY501   0.0000
    53 H27         28.2191    50.1395    30.8963 H            1 HCY501   0.0000
    54 H28         28.8915    55.4221    28.1410 H            1 HCY501   0.0000
    55 H29         25.7813    53.1249    31.6377 H            1 HCY501   0.0000
    56 H30         30.2822    51.6273    29.7625 H            1 HCY501   0.0000
@<TRIPOS>BOND
     1    1    2       1
     2    1   10       1
     3    2    3       1
     4    3    4       1
     5    3   22       2
     6    4    5       2
     7    5    6       1
     8    5   10       1
     9    6    7       1
    10    7    8       1
    11    8    9       1
    12    8   14       1
    13    9   10       1
    14    9   12       1
    15   10   19       1
    16   11   12       1
    17   11   13       1
    18   12   23       1
    19   13   14       1
    20   13   17       1
    21   13   18       1
    22   14   15       1
    23   15   16       1
    24   16   17       1
    25   17   20       1
    26   17   24       1
    27   20   21       1
    28   20   25       2
    29   21   26       1
    30    1   27       1
    31    1   28       1
    32    2   29       1
    33    2   30       1
    34    4   31       1
    35    6   32       1
    36    6   33       1
    37    7   34       1
    38    7   35       1
    39    8   36       1
    40    9   37       1
    41   11   38       1
    42   11   39       1
    43   12   40       1
    44   14   41       1
    45   15   42       1
    46   15   43       1
    47   16   44       1
    48   16   45       1
    49   18   46       1
    50   18   47       1
    51   18   48       1
    52   19   49       1
    53   19   50       1
    54   19   51       1
    55   21   52       1
    56   21   53       1
    57   23   54       1
    58   24   55       1
    59   26   56       1
@<TRIPOS>SUBSTRUCTURE
     1 HCY501      1 GROUP             4 A     HCY     0 **** HCY A 501
