@<TRIPOS>MOLECULE
./coach420/2f9w/ligand.pdb
 29 27 0 0 0
SMALL
GASTEIGER

@<TRIPOS>ATOM
      1  O2        28.3640   10.3390   63.2240 O.3   6001  PAU6001    -0.2203
      2  C1        26.9630    9.4360   64.9860 C.3   6001  PAU6001     0.0674
      3  C2        28.3740    9.5230   64.3990 C.3   6001  PAU6001     0.1849
      4  C3        27.0120    8.5790   66.2530 C.3   6001  PAU6001     0.0057
      5  C4        26.4880   10.8460   65.3480 C.3   6001  PAU6001     0.0057
      6  C5        26.0300    8.8120   63.9430 C.3   6001  PAU6001     0.2313
      7  O5'       26.5260    7.5270   63.5630 O.3   6001  PAU6001    -0.2131
      8  C6        24.5940    8.6740   64.4560 C.2   6001  PAU6001     0.2719
      9  O6'       23.8040    9.7790   64.4390 O.2   6001  PAU6001    -0.2706
     10  N         24.1920    7.4820   64.8900 N.am  6001  PAU6001    -0.2027
     11  C8        22.8300    7.2520   65.3970 C.3   6001  PAU6001     0.1270
     12  C9        22.8870    6.4670   66.7100 C.3   6001  PAU6001     0.1374
     13  C         23.5090    5.0810   66.5300 C.2   6001  PAU6001     0.3667
     14  OXT       24.2000    4.8820   65.5060 O.co2 6001  PAU6001    -0.2456
     15  O         23.2840    4.2450   67.4310 O.co2 6001  PAU6001    -0.2456
     16  C1        40.6230   19.4950   85.9050 C.3   6002  PAU6002     0.0368
     17  C2        40.1130   18.2530   86.6410 C.3   6002  PAU6002     0.0030
     18  C3        41.4490   19.0430   84.6970 C.3   6002  PAU6002     0.0030
     19  C4        39.4190   20.3040   85.4160 C.3   6002  PAU6002     0.0030
     20  C5        41.4790   20.3240   86.8690 C.3   6002  PAU6002     0.2288
     21  O5'       42.5890   19.5420   87.3170 O.3   6002  PAU6002    -0.2132
     22  C6        41.9890   21.6300   86.2520 C.2   6002  PAU6002     0.2718
     23  O6'       41.0970   22.6450   86.0960 O.2   6002  PAU6002    -0.2706
     24  N         43.2730   21.7140   85.9110 N.am  6002  PAU6002    -0.2027
     25  C8        43.8520   22.9330   85.3260 C.3   6002  PAU6002     0.1270
     26  C9        44.5680   22.6180   84.0100 C.3   6002  PAU6002     0.1374
     27  C         45.7680   21.6860   84.1920 C.2   6002  PAU6002     0.3667
     28  OXT       45.8170   21.0010   85.2360 O.co2 6002  PAU6002    -0.2456
     29  O         46.6080   21.6670   83.2660 O.co2 6002  PAU6002    -0.2456
@<TRIPOS>BOND
     1     1     3    1
     2     2     6    1
     3     2     3    1
     4     2     5    1
     5     2     4    1
     6     6     7    1
     7     6     8    1
     8     8     9    2
     9     8    10   am
    10    10    11    1
    11    11    12    1
    12    12    13    1
    13    13    14   ar
    14    13    15   ar
    15    16    18    1
    16    16    19    1
    17    16    17    1
    18    16    20    1
    19    20    22    1
    20    20    21    1
    21    22    24   am
    22    22    23    2
    23    24    25    1
    24    25    26    1
    25    26    27    1
    26    27    29   ar
    27    27    28   ar
