@<TRIPOS>MOLECULE
5a7y_SAH_1_ligand
   46    48     1     0     0
SMALL
NO_CHARGES


@<TRIPOS>ATOM
     1 N           46.4430    11.3920    36.8500 N.4          1 SAH1291   1.0000
     2 CA          45.8320    11.6030    38.1440 C.3          1 SAH1291   0.0000
     3 CB          44.5770    12.4640    38.0020 C.3          1 SAH1291   0.0000
     4 CG          44.3540    13.3590    39.2180 C.3          1 SAH1291   0.0000
     5 SD          44.7930    15.0380    38.9700 S.3          1 SAH1291   0.0000
     6 C           45.5490    10.2120    38.5710 C.2          1 SAH1291   0.0000
     7 O           45.6990     9.3470    37.6860 O.co2        1 SAH1291   0.0000
     8 OXT         45.2260     9.9710    39.7500 O.co2        1 SAH1291  -1.0000
     9 C5'         43.3150    15.7560    38.3740 C.3          1 SAH1291   0.0000
    10 C4'         43.3380    15.9460    36.8730 C.3          1 SAH1291   0.0000
    11 O4'         44.0700    17.1090    36.5760 O.3          1 SAH1291   0.0000
    12 C3'         44.0190    14.8390    36.1420 C.3          1 SAH1291   0.0000
    13 O3'         43.1870    13.7350    35.8380 O.3          1 SAH1291   0.0000
    14 C2'         44.5060    15.5590    34.9310 C.3          1 SAH1291   0.0000
    15 O2'         43.4360    15.7260    34.0510 O.3          1 SAH1291   0.0000
    16 C1'         44.7850    16.9520    35.3700 C.3          1 SAH1291   0.0000
    17 N9          46.2330    17.1680    35.6140 N.pl3        1 SAH1291   0.0000
    18 C8          46.7400    17.4380    36.8070 C.2          1 SAH1291   0.0000
    19 N7          48.0530    17.6170    36.7670 N.2          1 SAH1291   0.0000
    20 C5          48.4410    17.4670    35.5250 C.ar         1 SAH1291   0.0000
    21 C6          49.7260    17.5220    34.8180 C.ar         1 SAH1291   0.0000
    22 N6          50.8650    17.7920    35.4500 N.pl3        1 SAH1291   0.0000
    23 N1          49.7190    17.3140    33.5080 N.ar         1 SAH1291   0.0000
    24 C2          48.5900    17.0560    32.8550 C.ar         1 SAH1291   0.0000
    25 N3          47.4010    16.9840    33.4400 N.ar         1 SAH1291   0.0000
    26 C4          47.2440    17.1780    34.7530 C.ar         1 SAH1291   0.0000
    27 H1          47.2620    10.8281    36.9561 H            1 SAH1291   0.0000
    28 H2          45.7944    10.9277    36.2468 H            1 SAH1291   0.0000
    29 HA          46.4816    12.0344    38.7700 H            1 SAH1291   0.0000
    30 HB1         43.7846    11.8636    37.8939 H            1 SAH1291   0.0000
    31 HB2         44.6716    13.0405    37.1904 H            1 SAH1291   0.0000
    32 HG1         44.9011    13.0010    39.9747 H            1 SAH1291   0.0000
    33 HG2         43.3846    13.3215    39.4606 H            1 SAH1291   0.0000
    34 H5'1        43.1913    16.6475    38.8098 H            1 SAH1291   0.0000
    35 H5'2        42.5483    15.1595    38.6116 H            1 SAH1291   0.0000
    36 H4'         42.4023    16.0444    36.5342 H            1 SAH1291   0.0000
    37 H3'         44.8033    14.5240    36.6764 H            1 SAH1291   0.0000
    38 H12         43.7179    13.0417    35.3508 H            1 SAH1291   0.0000
    39 H2'         45.2963    15.1178    34.5057 H            1 SAH1291   0.0000
    40 H14         43.6436    15.2728    33.1841 H            1 SAH1291   0.0000
    41 H1'         44.4515    17.6009    34.6861 H            1 SAH1291   0.0000
    42 H16         46.1947    17.4998    37.6429 H            1 SAH1291   0.0000
    43 H17         51.7247    17.8223    34.9401 H            1 SAH1291   0.0000
    44 H18         50.8615    17.9647    36.4350 H            1 SAH1291   0.0000
    45 H19         48.6396    16.9078    31.8673 H            1 SAH1291   0.0000
    46 H20         46.6950    12.2743    36.4525 H            1 SAH1291   0.0000
@<TRIPOS>BOND
     1    1    2       1
     2    2    3       1
     3    2    6       1
     4    3    4       1
     5    4    5       1
     6    5    9       1
     7    6    7      ar
     8    6    8      ar
     9    9   10       1
    10   10   11       1
    11   10   12       1
    12   11   16       1
    13   12   13       1
    14   12   14       1
    15   14   15       1
    16   14   16       1
    17   16   17       1
    18   17   18       1
    19   17   26       1
    20   18   19       2
    21   19   20       1
    22   20   21      ar
    23   20   26      ar
    24   21   22       1
    25   21   23      ar
    26   23   24      ar
    27   24   25      ar
    28   25   26      ar
    29    1   27       1
    30    1   28       1
    31    2   29       1
    32    3   30       1
    33    3   31       1
    34    4   32       1
    35    4   33       1
    36    1   46       1
    37    9   34       1
    38    9   35       1
    39   10   36       1
    40   12   37       1
    41   13   38       1
    42   14   39       1
    43   15   40       1
    44   16   41       1
    45   18   42       1
    46   22   43       1
    47   22   44       1
    48   24   45       1
@<TRIPOS>SUBSTRUCTURE
     1 SAH1291     1 GROUP             4 A     SAH     0 **** SAH A1291
