@<TRIPOS>MOLECULE
1sg6_NAD_2_ligand
   70    74     1     0     0
SMALL
NO_CHARGES


@<TRIPOS>ATOM
     1 PA         -61.0090   -10.7770    24.5400 P.3          1 NAD1401   0.0000
     2 O1A        -59.7810   -10.9120    23.7520 O.co2        1 NAD1401   0.0000
     3 O2A        -60.9220   -10.7730    26.0150 O.co2        1 NAD1401  -1.0000
     4 O5B        -61.9900   -11.9740    24.0170 O.3          1 NAD1401   0.0000
     5 C5B        -63.3120   -12.1710    24.6720 C.3          1 NAD1401   0.0000
     6 C4B        -63.5660   -13.6760    24.8420 C.3          1 NAD1401   0.0000
     7 O4B        -63.7940   -14.3420    23.6210 O.3          1 NAD1401   0.0000
     8 C3B        -62.4590   -14.4970    25.5050 C.3          1 NAD1401   0.0000
     9 O3B        -62.8600   -15.1690    26.4360 O.3          1 NAD1401   0.0000
    10 C2B        -61.8730   -15.4060    24.4060 C.3          1 NAD1401   0.0000
    11 O2B        -61.3580   -16.6370    24.9040 O.3          1 NAD1401   0.0000
    12 C1B        -63.0450   -15.5900    23.5180 C.3          1 NAD1401   0.0000
    13 N9A        -62.8630   -15.7020    22.0560 N.pl3        1 NAD1401   0.0000
    14 C8A        -62.0540   -14.8700    21.2790 C.2          1 NAD1401   0.0000
    15 N7A        -62.2320   -15.1170    19.9960 N.2          1 NAD1401   0.0000
    16 C5A        -63.0770   -16.2110    19.9420 C.ar         1 NAD1401   0.0000
    17 C6A        -63.6150   -16.9490    18.8550 C.ar         1 NAD1401   0.0000
    18 N6A        -63.5490   -16.5800    17.5850 N.pl3        1 NAD1401   0.0000
    19 N1A        -64.2630   -18.1570    19.1660 N.ar         1 NAD1401   0.0000
    20 C2A        -64.5080   -18.4440    20.4890 C.ar         1 NAD1401   0.0000
    21 N3A        -64.1810   -17.7400    21.5860 N.ar         1 NAD1401   0.0000
    22 C4A        -63.4180   -16.6130    21.2120 C.ar         1 NAD1401   0.0000
    23 O3         -61.8480    -9.4510    24.1380 O.3          1 NAD1401   0.0000
    24 PN         -61.7180    -8.2780    23.0520 P.3          1 NAD1401   0.0000
    25 O1N        -61.3350    -8.8160    21.7520 O.co2        1 NAD1401   0.0000
    26 O2N        -63.0040    -7.5160    23.2660 O.co2        1 NAD1401  -1.0000
    27 O5D        -60.4410    -7.4850    23.6690 O.3          1 NAD1401   0.0000
    28 C5D        -60.4640    -6.6140    24.7990 C.3          1 NAD1401   0.0000
    29 C4D        -59.0660    -5.9870    24.9520 C.3          1 NAD1401   0.0000
    30 O4D        -58.7750    -5.1780    23.7780 O.3          1 NAD1401   0.0000
    31 C3D        -58.9050    -5.0250    26.1700 C.3          1 NAD1401   0.0000
    32 O3D        -57.9220    -5.5700    27.0340 O.3          1 NAD1401   0.0000
    33 C2D        -58.5060    -3.6870    25.5550 C.3          1 NAD1401   0.0000
    34 O2D        -57.5910    -2.9260    26.3660 O.3          1 NAD1401   0.0000
    35 C1D        -57.9380    -4.0630    24.2030 C.3          1 NAD1401   0.0000
    36 N1N        -58.1020    -3.0710    23.1290 N.ar         1 NAD1401   1.0000
    37 C2N        -56.8880    -2.7070    22.5590 C.ar         1 NAD1401   0.0000
    38 C3N        -56.8740    -1.7360    21.5510 C.ar         1 NAD1401   0.0000
    39 C7N        -55.5780    -1.3630    20.7700 C.2          1 NAD1401   0.0000
    40 O7N        -55.5680    -0.3900    20.0150 O.2          1 NAD1401   0.0000
    41 N7N        -54.4740    -2.1370    20.9510 N.am         1 NAD1401   0.0000
    42 C4N        -58.0650    -1.0070    21.1450 C.ar         1 NAD1401   0.0000
    43 C5N        -59.2650    -1.5090    21.7400 C.ar         1 NAD1401   0.0000
    44 C6N        -59.3610    -2.5110    22.6840 C.ar         1 NAD1401   0.0000
    45 H5B1       -64.0309   -11.7718    24.1030 H            1 NAD1401   0.0000
    46 H5B2       -63.3115   -11.7277    25.5684 H            1 NAD1401   0.0000
    47 H4B        -64.3903   -13.7798    25.3985 H            1 NAD1401   0.0000
    48 H3B        -61.7449   -13.8783    25.8324 H            1 NAD1401   0.0000
    49 H5         -62.0973   -15.6823    26.8295 H            1 NAD1401   0.0000
    50 H2B        -61.1533   -14.9160    23.9141 H            1 NAD1401   0.0000
    51 H7         -60.3926   -16.5237    25.1390 H            1 NAD1401   0.0000
    52 H1B        -63.6050   -16.3496    23.8489 H            1 NAD1401   0.0000
    53 H8A        -61.4268   -14.1824    21.6448 H            1 NAD1401   0.0000
    54 H6A1       -63.9537   -17.1565    16.8751 H            1 NAD1401   0.0000
    55 H6A2       -63.0945   -15.7248    17.3358 H            1 NAD1401   0.0000
    56 H2A        -64.9995   -19.2982    20.6585 H            1 NAD1401   0.0000
    57 H5D1       -60.6939    -7.1334    25.6220 H            1 NAD1401   0.0000
    58 H5D2       -61.1441    -5.8945    24.6580 H            1 NAD1401   0.0000
    59 H4D        -58.3867    -6.7175    25.0213 H            1 NAD1401   0.0000
    60 H3D        -59.7755    -4.9347    26.6538 H            1 NAD1401   0.0000
    61 H17        -57.5798    -6.4278    26.6505 H            1 NAD1401   0.0000
    62 H2D        -59.3329    -3.1431    25.4126 H            1 NAD1401   0.0000
    63 H19        -58.0127    -2.7321    27.2518 H            1 NAD1401   0.0000
    64 H1D        -56.9822    -4.3456    24.2841 H            1 NAD1401   0.0000
    65 H2N        -56.0364    -3.1328    22.8647 H            1 NAD1401   0.0000
    66 H7N1       -53.6276    -1.9225    20.4635 H            1 NAD1401   0.0000
    67 H7N2       -54.5089    -2.9204    21.5715 H            1 NAD1401   0.0000
    68 H4N        -58.0469    -0.2322    20.5130 H            1 NAD1401   0.0000
    69 H5N        -60.1228    -1.0908    21.4411 H            1 NAD1401   0.0000
    70 H6N        -60.2409    -2.8290    23.0370 H            1 NAD1401   0.0000
@<TRIPOS>BOND
     1    1    2      ar
     2    1    3      ar
     3    1    4       1
     4    1   23       1
     5    4    5       1
     6    5    6       1
     7    6    7       1
     8    6    8       1
     9    7   12       1
    10    8    9       1
    11    8   10       1
    12   10   11       1
    13   10   12       1
    14   12   13       1
    15   13   14       1
    16   13   22       1
    17   14   15       2
    18   15   16       1
    19   16   17      ar
    20   16   22      ar
    21   17   18       1
    22   17   19      ar
    23   19   20      ar
    24   20   21      ar
    25   21   22      ar
    26   23   24       1
    27   24   25      ar
    28   24   26      ar
    29   24   27       1
    30   27   28       1
    31   28   29       1
    32   29   30       1
    33   29   31       1
    34   30   35       1
    35   31   32       1
    36   31   33       1
    37   33   34       1
    38   33   35       1
    39   35   36       1
    40   36   37      ar
    41   36   44      ar
    42   37   38      ar
    43   38   39       1
    44   38   42      ar
    45   39   40       2
    46   39   41      am
    47   42   43      ar
    48   43   44      ar
    49   44   70       1
    50    5   45       1
    51    5   46       1
    52    6   47       1
    53    8   48       1
    54    9   49       1
    55   10   50       1
    56   11   51       1
    57   12   52       1
    58   14   53       1
    59   18   54       1
    60   18   55       1
    61   20   56       1
    62   43   69       1
    63   28   57       1
    64   28   58       1
    65   29   59       1
    66   31   60       1
    67   32   61       1
    68   33   62       1
    69   34   63       1
    70   35   64       1
    71   37   65       1
    72   41   66       1
    73   41   67       1
    74   42   68       1
@<TRIPOS>SUBSTRUCTURE
     1 NAD1401     1 GROUP             4 B     NAD     0 **** NAD B1401
