@<TRIPOS>MOLECULE
4a30_QMI_1_ligand
   33    34     1     0     0
SMALL
NO_CHARGES


@<TRIPOS>ATOM
     1 CLJ         30.4620     6.7930    12.5000 Cl           1 QMI1424   0.0000
     2 CAE         28.9300     6.0220    12.1220 C.ar         1 QMI1424   0.0000
     3 CAD         29.0330     5.2240    10.9890 C.ar         1 QMI1424   0.0000
     4 CAC         27.9320     4.4880    10.6910 C.ar         1 QMI1424   0.0000
     5 BRU         28.0550     3.4450     9.1240 Br           1 QMI1424   0.0000
     6 CAB         26.7430     4.5260    11.4080 C.ar         1 QMI1424   0.0000
     7 CAA         26.7080     5.3580    12.5370 C.ar         1 QMI1424   0.0000
     8 CLI         25.1870     5.3000    13.3760 Cl           1 QMI1424   0.0000
     9 CAF         27.7860     6.2280    12.9210 C.ar         1 QMI1424   0.0000
    10 SAG         27.8130     7.2210    14.2790 S.o2         1 QMI1424   0.0000
    11 OAH         26.4740     7.4180    14.7360 O.2          1 QMI1424   0.0000
    12 OAT         28.5050     8.4680    14.0110 O.2          1 QMI1424   0.0000
    13 NAK         28.7230     6.4340    15.3750 N.pl3        1 QMI1424   0.0000
    14 CAL         28.3010     5.2560    15.9770 C.2          1 QMI1424   0.0000
    15 CAP         28.6900     3.9600    15.4990 C.2          1 QMI1424   0.0000
    16 CAR         29.5210     3.5020    14.3200 C.3          1 QMI1424   0.0000
    17 NAO         28.0490     3.1420    16.3510 N.pl3        1 QMI1424   0.0000
    18 CAQ         28.0840     1.6520    16.3610 C.3          1 QMI1424   0.0000
    19 NAN         27.3020     3.8180    17.2790 N.2          1 QMI1424   0.0000
    20 CAM         27.4600     5.1460    17.0510 C.2          1 QMI1424   0.0000
    21 CAS         26.7580     6.1380    17.9430 C.3          1 QMI1424   0.0000
    22 HAD         29.8622     5.1940    10.4309 H            1 QMI1424   0.0000
    23 HAB         25.9484     3.9851    11.1321 H            1 QMI1424   0.0000
    24 HAK         29.6153     6.8111    15.6230 H            1 QMI1424   0.0000
    25 HAR1        29.5710     2.5033    14.3154 H            1 QMI1424   0.0000
    26 HAR2        29.0979     3.8185    13.4710 H            1 QMI1424   0.0000
    27 HAR3        30.4431     3.8816    14.3946 H            1 QMI1424   0.0000
    28 HAQ1        27.5122     1.3101    17.1068 H            1 QMI1424   0.0000
    29 HAQ2        27.7380     1.3046    15.4895 H            1 QMI1424   0.0000
    30 HAQ3        29.0253     1.3416    16.4935 H            1 QMI1424   0.0000
    31 HAS1        26.2216     5.6474    18.6298 H            1 QMI1424   0.0000
    32 HAS2        27.4361     6.7144    18.3990 H            1 QMI1424   0.0000
    33 HAS3        26.1506     6.7102    17.3920 H            1 QMI1424   0.0000
@<TRIPOS>BOND
     1    1    2       1
     2    2    3      ar
     3    2    9      ar
     4    3    4      ar
     5    4    5       1
     6    4    6      ar
     7    6    7      ar
     8    7    8       1
     9    7    9      ar
    10    9   10       1
    11   10   11       2
    12   10   12       2
    13   10   13       1
    14   13   14       1
    15   14   15       2
    16   14   20       1
    17   15   16       1
    18   15   17       1
    19   17   18       1
    20   17   19       1
    21   19   20       2
    22   20   21       1
    23    3   22       1
    24    6   23       1
    25   13   24       1
    26   16   25       1
    27   16   26       1
    28   16   27       1
    29   18   28       1
    30   18   29       1
    31   18   30       1
    32   21   31       1
    33   21   32       1
    34   21   33       1
@<TRIPOS>SUBSTRUCTURE
     1 QMI1424     1 GROUP             4 A     QMI     0 **** QMI A1424
