@<TRIPOS>MOLECULE
4mob_COA_1_ligand
   80    82     1     0     0
SMALL
NO_CHARGES


@<TRIPOS>ATOM
     1 N1A        -13.5030    18.8010   -51.3480 N.ar         1 COA401   0.0000
     2 C2A        -14.0500    17.6180   -50.9850 C.ar         1 COA401   0.0000
     3 N3A        -13.3670    16.7480   -50.1670 N.ar         1 COA401   0.0000
     4 C4A        -12.1190    17.0890   -49.7240 C.ar         1 COA401   0.0000
     5 C5A        -11.5300    18.3270   -50.1050 C.ar         1 COA401   0.0000
     6 C6A        -12.2600    19.1750   -50.9320 C.ar         1 COA401   0.0000
     7 N6A        -11.7380    20.4190   -51.3490 N.pl3        1 COA401   0.0000
     8 N7A        -10.3110    18.3740   -49.5210 N.2          1 COA401   0.0000
     9 C8A        -10.1010    17.2590   -48.8050 C.2          1 COA401   0.0000
    10 N9A        -11.1810    16.4580   -48.9050 N.pl3        1 COA401   0.0000
    11 C1B        -11.3860    15.1970   -48.3170 C.3          1 COA401   0.0000
    12 C2B        -10.4180    14.2100   -48.8420 C.3          1 COA401   0.0000
    13 O2B        -10.9090    13.7020   -50.1210 O.3          1 COA401   0.0000
    14 C3B        -10.3880    13.1750   -47.7970 C.3          1 COA401   0.0000
    15 O3B        -11.5040    12.2600   -48.0770 O.3          1 COA401   0.0000
    16 P3B        -11.4210    10.6890   -47.7260 P.3          1 COA401   0.0000
    17 O7A        -10.5830     9.9940   -48.7840 O.co2        1 COA401   0.0000
    18 O8A        -12.7930    10.0160   -47.7320 O.co2        1 COA401  -1.0000
    19 O9A        -10.8660    10.5440   -46.3170 O.co2        1 COA401  -1.0000
    20 C4B        -10.6260    13.8820   -46.5230 C.3          1 COA401   0.0000
    21 O4B        -11.2440    15.2280   -46.8420 O.3          1 COA401   0.0000
    22 C5B         -9.3560    14.1370   -45.7340 C.3          1 COA401   0.0000
    23 O5B         -8.4360    14.8460   -46.5530 O.3          1 COA401   0.0000
    24 P1A         -6.9560    15.1860   -46.0550 P.3          1 COA401   0.0000
    25 O1A         -6.1540    15.6880   -47.2500 O.co2        1 COA401   0.0000
    26 O2A         -6.2970    13.9430   -45.4540 O.co2        1 COA401  -1.0000
    27 O3A         -6.9890    16.3250   -44.9040 O.3          1 COA401   0.0000
    28 P2A         -7.1440    17.9000   -45.1840 P.3          1 COA401   0.0000
    29 O4A         -7.0670    18.2040   -46.6600 O.co2        1 COA401   0.0000
    30 O5A         -6.0460    18.6100   -44.4130 O.co2        1 COA401  -1.0000
    31 O6A         -8.5890    18.4040   -44.6550 O.3          1 COA401   0.0000
    32 CBP        -10.9180    18.4040   -44.0910 C.3          1 COA401   0.0000
    33 CCP         -9.8340    17.7950   -45.0650 C.3          1 COA401   0.0000
    34 CDP        -12.1370    18.8990   -44.9340 C.3          1 COA401   0.0000
    35 CEP        -11.3410    17.3240   -43.0710 C.3          1 COA401   0.0000
    36 CAP        -10.2650    19.6210   -43.3650 C.3          1 COA401   0.0000
    37 OAP         -9.8730    20.5420   -44.3410 O.3          1 COA401   0.0000
    38 C9P        -11.2220    20.2850   -42.3830 C.2          1 COA401   0.0000
    39 O9P        -11.3090    19.9150   -41.2190 O.2          1 COA401   0.0000
    40 N8P        -12.0450    21.3840   -42.8280 N.am         1 COA401   0.0000
    41 C7P        -12.9690    22.0210   -41.9080 C.3          1 COA401   0.0000
    42 C6P        -14.1870    21.1070   -41.6250 C.3          1 COA401   0.0000
    43 C5P        -15.1780    21.9080   -40.7210 C.2          1 COA401   0.0000
    44 O5P        -14.9340    22.0940   -39.5370 O.2          1 COA401   0.0000
    45 N4P        -16.3980    22.4200   -41.3040 N.am         1 COA401   0.0000
    46 C3P        -17.3730    23.1710   -40.5300 C.3          1 COA401   0.0000
    47 C2P        -17.1910    24.6440   -40.8780 C.3          1 COA401   0.0000
    48 S1P        -15.6810    25.2130   -40.1370 S.3          1 COA401   0.0000
    49 H2A        -14.9616    17.3731   -51.3152 H            1 COA401   0.0000
    50 H6A1       -10.8273    20.7045   -51.0505 H            1 COA401   0.0000
    51 H6A2       -12.2790    21.0145   -51.9429 H            1 COA401   0.0000
    52 H8A         -9.2746    17.0544   -48.2804 H            1 COA401   0.0000
    53 H1B        -12.3100    14.8874   -48.5415 H            1 COA401   0.0000
    54 H2B         -9.5153    14.6260   -48.9515 H            1 COA401   0.0000
    55 H7         -11.7812    14.1392   -50.3406 H            1 COA401   0.0000
    56 H3B         -9.5129    12.6911   -47.7878 H            1 COA401   0.0000
    57 H4B        -11.2619    13.3504   -45.9635 H            1 COA401   0.0000
    58 H5B1        -8.9537    13.2649   -45.4555 H            1 COA401   0.0000
    59 H5B2        -9.5693    14.6801   -44.9219 H            1 COA401   0.0000
    60 HCP1        -9.7897    16.8009   -44.9660 H            1 COA401   0.0000
    61 HCP2       -10.0437    18.0264   -46.0150 H            1 COA401   0.0000
    62 HDP1       -12.8286    19.2864   -44.3244 H            1 COA401   0.0000
    63 HDP2       -11.8330    19.5987   -45.5806 H            1 COA401   0.0000
    64 HDP3       -12.5295    18.1287   -45.4366 H            1 COA401   0.0000
    65 HEP1       -12.0277    17.7024   -42.4504 H            1 COA401   0.0000
    66 HEP2       -11.7268    16.5396   -43.5567 H            1 COA401   0.0000
    67 HEP3       -10.5423    17.0307   -42.5455 H            1 COA401   0.0000
    68 HAP         -9.4551    19.3079   -42.8690 H            1 COA401   0.0000
    69 H21        -10.6224    21.1802   -44.5172 H            1 COA401   0.0000
    70 H8P        -11.9784    21.7071   -43.7720 H            1 COA401   0.0000
    71 H7P1       -13.2900    22.8793   -42.3084 H            1 COA401   0.0000
    72 H7P2       -12.4956    22.2110   -41.0479 H            1 COA401   0.0000
    73 H6P1       -13.8886    20.2777   -41.1526 H            1 COA401   0.0000
    74 H6P2       -14.6340    20.8586   -42.4844 H            1 COA401   0.0000
    75 H4P        -16.5774    22.2517   -42.2733 H            1 COA401   0.0000
    76 H3P1       -17.2170    23.0285   -39.5526 H            1 COA401   0.0000
    77 H3P2       -18.2986    22.8754   -40.7664 H            1 COA401   0.0000
    78 H2P1       -17.9618    25.1727   -40.5225 H            1 COA401   0.0000
    79 H2P2       -17.1419    24.7528   -41.8708 H            1 COA401   0.0000
    80 H1P        -14.9242    25.0774   -40.7764 H            1 COA401   0.0000
@<TRIPOS>BOND
     1    1    2      ar
     2    1    6      ar
     3    2    3      ar
     4    3    4      ar
     5    4    5      ar
     6    4   10       1
     7    5    6      ar
     8    5    8       1
     9    6    7       1
    10    8    9       2
    11    9   10       1
    12   10   11       1
    13   11   12       1
    14   11   21       1
    15   12   13       1
    16   12   14       1
    17   14   15       1
    18   14   20       1
    19   15   16       1
    20   16   17      ar
    21   16   18      ar
    22   16   19      ar
    23   20   21       1
    24   20   22       1
    25   22   23       1
    26   23   24       1
    27   24   25      ar
    28   24   26      ar
    29   24   27       1
    30   27   28       1
    31   28   29      ar
    32   28   30      ar
    33   28   31       1
    34   31   33       1
    35   32   33       1
    36   32   34       1
    37   32   35       1
    38   32   36       1
    39   36   37       1
    40   36   38       1
    41   38   39       2
    42   38   40      am
    43   40   41       1
    44   41   42       1
    45   42   43       1
    46   43   44       2
    47   43   45      am
    48   45   46       1
    49   46   47       1
    50   47   48       1
    51    2   49       1
    52    7   50       1
    53    7   51       1
    54    9   52       1
    55   11   53       1
    56   12   54       1
    57   13   55       1
    58   14   56       1
    59   48   80       1
    60   47   79       1
    61   20   57       1
    62   22   58       1
    63   22   59       1
    64   47   78       1
    65   46   77       1
    66   33   60       1
    67   33   61       1
    68   34   62       1
    69   34   63       1
    70   34   64       1
    71   35   65       1
    72   35   66       1
    73   35   67       1
    74   36   68       1
    75   37   69       1
    76   40   70       1
    77   41   71       1
    78   41   72       1
    79   42   73       1
    80   42   74       1
    81   45   75       1
    82   46   76       1
@<TRIPOS>SUBSTRUCTURE
     1 COA401      1 GROUP             4 A     COA     0 **** COA A 401
