@<TRIPOS>MOLECULE
2q2v_NAD_1_ligand
   70    74     1     0     0
SMALL
NO_CHARGES


@<TRIPOS>ATOM
     1 PA          46.0660    12.9320    21.3950 P.3          1 NAD300   0.0000
     2 O1A         47.1520    13.5300    22.2100 O.co2        1 NAD300   0.0000
     3 O2A         44.9360    13.8580    21.1070 O.co2        1 NAD300  -1.0000
     4 O5B         45.5120    11.6140    22.1370 O.3          1 NAD300   0.0000
     5 C5B         46.3870    10.6950    22.7570 C.3          1 NAD300   0.0000
     6 C4B         45.5900     9.7830    23.6740 C.3          1 NAD300   0.0000
     7 O4B         46.5080     8.8740    24.2480 O.3          1 NAD300   0.0000
     8 C3B         44.9440    10.5450    24.8240 C.3          1 NAD300   0.0000
     9 O3B         43.7780     9.8520    25.1880 O.3          1 NAD300   0.0000
    10 C2B         45.9620    10.4400    25.9420 C.3          1 NAD300   0.0000
    11 O2B         45.3850    10.5230    27.2140 O.3          1 NAD300   0.0000
    12 C1B         46.4400     9.0220    25.6650 C.3          1 NAD300   0.0000
    13 N9A         47.7070     8.6490    26.3060 N.pl3        1 NAD300   0.0000
    14 C8A         48.8790     9.3490    26.2340 C.2          1 NAD300   0.0000
    15 N7A         49.7960     8.6890    26.9520 N.2          1 NAD300   0.0000
    16 C5A         49.2420     7.5640    27.4590 C.ar         1 NAD300   0.0000
    17 C6A         49.7090     6.5280    28.2760 C.ar         1 NAD300   0.0000
    18 N6A         50.9580     6.4740    28.7510 N.pl3        1 NAD300   0.0000
    19 N1A         48.8340     5.5260    28.6360 N.ar         1 NAD300   0.0000
    20 C2A         47.5010     5.5440    28.2090 C.ar         1 NAD300   0.0000
    21 N3A         47.0390     6.5570    27.4150 N.ar         1 NAD300   0.0000
    22 C4A         47.8970     7.5460    27.0390 C.ar         1 NAD300   0.0000
    23 O3          46.8170    12.4270    20.0630 O.3          1 NAD300   0.0000
    24 PN          46.2450    11.8080    18.6970 P.3          1 NAD300   0.0000
    25 O1N         46.6540    12.7370    17.6270 O.co2        1 NAD300   0.0000
    26 O2N         44.8030    11.4910    18.8540 O.co2        1 NAD300  -1.0000
    27 O5D         47.0890    10.4370    18.6520 O.3          1 NAD300   0.0000
    28 C5D         46.5200     9.1390    18.7160 C.3          1 NAD300   0.0000
    29 C4D         47.3970     8.2000    17.8640 C.3          1 NAD300   0.0000
    30 O4D         47.3620     8.6470    16.5230 O.3          1 NAD300   0.0000
    31 C3D         48.8770     8.2180    18.2730 C.3          1 NAD300   0.0000
    32 O3D         49.3850     6.8870    18.2770 O.3          1 NAD300   0.0000
    33 C2D         49.5320     9.0990    17.2230 C.3          1 NAD300   0.0000
    34 O2D         50.8900     8.7620    17.0420 O.3          1 NAD300   0.0000
    35 C1D         48.6950     8.6890    16.0210 C.3          1 NAD300   0.0000
    36 N1N         48.7380     9.5870    14.8540 N.ar         1 NAD300   1.0000
    37 C2N         48.3580    10.9180    14.9820 C.ar         1 NAD300   0.0000
    38 C3N         48.3720    11.7390    13.8740 C.ar         1 NAD300   0.0000
    39 C7N         47.8000    13.1080    13.9910 C.2          1 NAD300   0.0000
    40 O7N         48.0590    13.9270    12.9340 O.2          1 NAD300   0.0000
    41 N7N         47.0930    13.5060    15.0630 N.am         1 NAD300   0.0000
    42 C4N         48.7920    11.2400    12.6120 C.ar         1 NAD300   0.0000
    43 C5N         49.1540     9.8860    12.4800 C.ar         1 NAD300   0.0000
    44 C6N         49.1200     9.0780    13.6220 C.ar         1 NAD300   0.0000
    45 H5B1        47.0697    11.1927    23.2920 H            1 NAD300   0.0000
    46 H5B2        46.8461    10.1471    22.0577 H            1 NAD300   0.0000
    47 H4B         44.8945     9.2893    23.1519 H            1 NAD300   0.0000
    48 H3B         44.7528    11.4960    24.5811 H            1 NAD300   0.0000
    49 H5          43.8987     8.8766    25.0036 H            1 NAD300   0.0000
    50 H2B         46.7005    11.1049    25.8297 H            1 NAD300   0.0000
    51 H7          46.0400    10.9291    27.8513 H            1 NAD300   0.0000
    52 H1B         45.7364     8.3955    26.0003 H            1 NAD300   0.0000
    53 H8A         49.0253    10.2025    25.7338 H            1 NAD300   0.0000
    54 H6A1        51.2396     5.7099    29.3314 H            1 NAD300   0.0000
    55 H6A2        51.6103     7.1977    28.5258 H            1 NAD300   0.0000
    56 H2A         46.8814     4.8099    28.4869 H            1 NAD300   0.0000
    57 H5D1        45.5884     9.1573    18.3531 H            1 NAD300   0.0000
    58 H5D2        46.5022     8.8213    19.6640 H            1 NAD300   0.0000
    59 H4D         47.0432     7.2663    17.9180 H            1 NAD300   0.0000
    60 H3D         48.9790     8.6283    19.1792 H            1 NAD300   0.0000
    61 H17         48.8658     6.3340    18.9287 H            1 NAD300   0.0000
    62 H2D         49.4194    10.0697    17.4354 H            1 NAD300   0.0000
    63 H19         51.3806     8.8795    17.9054 H            1 NAD300   0.0000
    64 H1D         48.9645     7.7695    15.7347 H            1 NAD300   0.0000
    65 H2N         48.0764    11.2778    15.8715 H            1 NAD300   0.0000
    66 H7N1        46.7255    14.4352    15.1027 H            1 NAD300   0.0000
    67 H7N2        46.9347    12.8729    15.8207 H            1 NAD300   0.0000
    68 H4N         48.8304    11.8488    11.8196 H            1 NAD300   0.0000
    69 H5N         49.4280     9.5117    11.5941 H            1 NAD300   0.0000
    70 H6N         49.3763     8.1142    13.5481 H            1 NAD300   0.0000
@<TRIPOS>BOND
     1    1    2      ar
     2    1    3      ar
     3    1    4       1
     4    1   23       1
     5    4    5       1
     6    5    6       1
     7    6    7       1
     8    6    8       1
     9    7   12       1
    10    8    9       1
    11    8   10       1
    12   10   11       1
    13   10   12       1
    14   12   13       1
    15   13   14       1
    16   13   22       1
    17   14   15       2
    18   15   16       1
    19   16   17      ar
    20   16   22      ar
    21   17   18       1
    22   17   19      ar
    23   19   20      ar
    24   20   21      ar
    25   21   22      ar
    26   23   24       1
    27   24   25      ar
    28   24   26      ar
    29   24   27       1
    30   27   28       1
    31   28   29       1
    32   29   30       1
    33   29   31       1
    34   30   35       1
    35   31   32       1
    36   31   33       1
    37   33   34       1
    38   33   35       1
    39   35   36       1
    40   36   37      ar
    41   36   44      ar
    42   37   38      ar
    43   38   39       1
    44   38   42      ar
    45   39   40       2
    46   39   41      am
    47   42   43      ar
    48   43   44      ar
    49   44   70       1
    50    5   45       1
    51    5   46       1
    52    6   47       1
    53    8   48       1
    54    9   49       1
    55   10   50       1
    56   11   51       1
    57   12   52       1
    58   14   53       1
    59   18   54       1
    60   18   55       1
    61   20   56       1
    62   43   69       1
    63   28   57       1
    64   28   58       1
    65   29   59       1
    66   31   60       1
    67   32   61       1
    68   33   62       1
    69   34   63       1
    70   35   64       1
    71   37   65       1
    72   41   66       1
    73   41   67       1
    74   42   68       1
@<TRIPOS>SUBSTRUCTURE
     1 NAD300      1 GROUP             4 B     NAD     0 **** NAD B 300
