@<TRIPOS>MOLECULE
2y7j_B49_3_ligand
   57    59     1     0     0
SMALL
NO_CHARGES


@<TRIPOS>ATOM
     1 C4         -26.1670    12.3130    -3.4560 C.3          1 B491294   0.0000
     2 C5         -26.7020     2.8260    -6.4280 C.ar         1 B491294   0.0000
     3 C6         -27.0210     3.9160    -7.1610 C.ar         1 B491294   0.0000
     4 C7         -26.3480     4.2370    -4.2800 C.ar         1 B491294   0.0000
     5 C13        -25.9900     9.0830    -1.4900 C.2          1 B491294   0.0000
     6 C15        -26.3570     2.9710    -4.9620 C.ar         1 B491294   0.0000
     7 C17        -26.6740     5.3830    -5.0420 C.ar         1 B491294   0.0000
     8 C20        -26.6850     6.7580    -4.6830 C.2          1 B491294   0.0000
     9 C21        -27.0320     7.4470    -5.9090 C.2          1 B491294   0.0000
    10 C22        -25.5710    11.4290    -0.3530 C.2          1 B491294   0.0000
    11 C3         -25.8480     7.9740    -0.3890 C.3          1 B491294   0.0000
    12 C12        -26.4090     7.2550    -3.4260 C.2          1 B491294   0.0000
    13 C14        -26.1430    10.9800    -2.8850 C.2          1 B491294   0.0000
    14 C16        -27.0020     5.2840    -6.4750 C.ar         1 B491294   0.0000
    15 C18        -26.2990     8.7630    -2.8820 C.2          1 B491294   0.0000
    16 C19        -25.8660    10.5130    -1.4940 C.2          1 B491294   0.0000
    17 N23        -26.4020     9.9360    -3.6130 N.pl3        1 B491294   0.0000
    18 N24        -27.2640     6.5820    -7.0170 N.am         1 B491294   0.0000
    19 N25        -24.9800    10.8310     0.6400 N.am         1 B491294   0.0000
    20 O27        -27.1630     8.6120    -5.9600 O.2          1 B491294   0.0000
    21 O28        -25.8410    12.5830    -0.3100 O.2          1 B491294   0.0000
    22 F29        -26.0670     1.9020    -4.3600 F            1 B491294   0.0000
    23 C37        -24.5660    11.3250     1.8610 C.3          1 B491294   0.0000
    24 C38        -23.8870    12.7170     1.9530 C.3          1 B491294   0.0000
    25 N4         -24.6050    13.8620     2.7160 N.4          1 B491294   1.0000
    26 C39        -23.8310    15.2120     2.5140 C.3          1 B491294   0.0000
    27 C40        -25.2400    13.5000     4.2130 C.3          1 B491294   0.0000
    28 C41        -25.7170    12.1540     4.8250 C.3          1 B491294   0.0000
    29 C42        -22.2830    15.4290     2.1690 C.3          1 B491294   0.0000
    30 H1         -26.3910    12.2549    -4.4289 H            1 B491294   0.0000
    31 H2         -26.8574    12.8640    -2.9873 H            1 B491294   0.0000
    32 H3         -25.2691    12.7392    -3.3455 H            1 B491294   0.0000
    33 H4         -26.6940     1.9220    -6.8555 H            1 B491294   0.0000
    34 H5         -27.2634     3.8307    -8.1274 H            1 B491294   0.0000
    35 H6         -26.1209     4.3042    -3.3084 H            1 B491294   0.0000
    36 H7         -25.6360     8.4018     0.4896 H            1 B491294   0.0000
    37 H8         -26.7065     7.4667    -0.3142 H            1 B491294   0.0000
    38 H9         -25.1110     7.3467    -0.6408 H            1 B491294   0.0000
    39 H10        -26.2493     6.5536    -2.7314 H            1 B491294   0.0000
    40 H11        -26.6458     9.9739    -4.5821 H            1 B491294   0.0000
    41 H12        -27.5421     6.8232    -7.9468 H            1 B491294   0.0000
    42 H13        -24.7964     9.8586     0.4959 H            1 B491294   0.0000
    43 H14        -23.9156    10.6629     2.2332 H            1 B491294   0.0000
    44 H15        -25.3763    11.3613     2.4459 H            1 B491294   0.0000
    45 H16        -23.7449    13.0350     1.0156 H            1 B491294   0.0000
    46 H17        -23.0012    12.5810     2.3968 H            1 B491294   0.0000
    47 H18        -23.9703    15.7118     3.3689 H            1 B491294   0.0000
    48 H19        -24.3204    15.6739     1.7743 H            1 B491294   0.0000
    49 H20        -26.0443    14.0905     4.2798 H            1 B491294   0.0000
    50 H21        -24.5394    13.8174     4.8521 H            1 B491294   0.0000
    51 H22        -26.0435    12.3089     5.7574 H            1 B491294   0.0000
    52 H23        -26.4597    11.7799     4.2696 H            1 B491294   0.0000
    53 H24        -24.9548    11.5068     4.8419 H            1 B491294   0.0000
    54 H25        -22.0902    16.4080     2.1034 H            1 B491294   0.0000
    55 H26        -21.7209    15.0262     2.8913 H            1 B491294   0.0000
    56 H27        -22.0709    14.9883     1.2967 H            1 B491294   0.0000
    57 H28        -25.4270    14.0030     2.1643 H            1 B491294   0.0000
@<TRIPOS>BOND
     1    1   13       1
     2    2    3      ar
     3    2    6      ar
     4    3   14      ar
     5    4    6      ar
     6    4    7      ar
     7    5   11       1
     8    5   15       2
     9    5   16       1
    10    6   22       1
    11    7    8       1
    12    7   14      ar
    13    8    9       1
    14    8   12       2
    15    9   18      am
    16    9   20       2
    17   10   16       1
    18   10   19      am
    19   10   21       2
    20   12   15       1
    21   13   16       2
    22   13   17       1
    23   14   18       1
    24   15   17       1
    25   19   23       1
    26   23   24       1
    27   24   25       1
    28   25   26       1
    29   25   27       1
    30   26   29       1
    31   27   28       1
    32    1   30       1
    33    1   31       1
    34    1   32       1
    35    2   33       1
    36    3   34       1
    37    4   35       1
    38   11   36       1
    39   11   37       1
    40   11   38       1
    41   12   39       1
    42   17   40       1
    43   18   41       1
    44   19   42       1
    45   23   43       1
    46   23   44       1
    47   24   45       1
    48   24   46       1
    49   26   47       1
    50   26   48       1
    51   27   49       1
    52   27   50       1
    53   28   51       1
    54   28   52       1
    55   28   53       1
    56   29   54       1
    57   29   55       1
    58   29   56       1
    59   25   57       1
@<TRIPOS>SUBSTRUCTURE
     1 B491294     1 GROUP             4 C     B49     0 **** B49 C1294
