@<TRIPOS>MOLECULE
1fap_RAP_1_ligand
  144   147     1     0     0
SMALL
NO_CHARGES


@<TRIPOS>ATOM
     1 C1          -6.8160    26.0140    40.3650 C.2          1 RAP108   0.0000
     2 O1          -7.7150    26.7390    39.5040 O.3          1 RAP108   0.0000
     3 O2          -5.6590    25.8630    39.9530 O.2          1 RAP108   0.0000
     4 C2          -7.2340    25.4720    41.7420 C.3          1 RAP108   0.0000
     5 C3          -6.7480    24.0380    41.9630 C.3          1 RAP108   0.0000
     6 C4          -7.5310    22.9680    41.2040 C.3          1 RAP108   0.0000
     7 C5          -9.0270    23.0850    41.4300 C.3          1 RAP108   0.0000
     8 C6          -9.4920    24.4850    41.1390 C.3          1 RAP108   0.0000
     9 N7          -8.6850    25.3890    41.9850 N.am         1 RAP108   0.0000
    10 C8          -9.2870    26.2230    42.8520 C.2          1 RAP108   0.0000
    11 O3          -8.6530    27.0660    43.4840 O.2          1 RAP108   0.0000
    12 C9         -10.6450    26.3090    43.1200 C.2          1 RAP108   0.0000
    13 O4         -11.0260    25.6070    44.0550 O.2          1 RAP108   0.0000
    14 C10        -11.6470    27.1890    42.3610 C.3          1 RAP108   0.0000
    15 O5         -11.7490    26.6750    41.0290 O.3          1 RAP108   0.0000
    16 O6         -12.8150    27.1950    43.2060 O.3          1 RAP108   0.0000
    17 C11        -11.1020    28.6230    42.1770 C.3          1 RAP108   0.0000
    18 C12        -12.1020    29.4530    41.3620 C.3          1 RAP108   0.0000
    19 C13        -12.6610    28.7550    40.1170 C.3          1 RAP108   0.0000
    20 C14        -12.7440    27.2250    40.1970 C.3          1 RAP108   0.0000
    21 C15        -12.4760    26.5580    38.8440 C.3          1 RAP108   0.0000
    22 C16        -13.4910    26.6880    37.7000 C.3          1 RAP108   0.0000
    23 O7         -14.7640    26.2880    38.0700 O.3          1 RAP108   0.0000
    24 C17        -13.0200    25.7940    36.5530 C.2          1 RAP108   0.0000
    25 C18        -12.7020    26.3440    35.4000 C.2          1 RAP108   0.0000
    26 C19        -12.1830    25.6940    34.1650 C.2          1 RAP108   0.0000
    27 C20        -12.2640    26.3510    33.0030 C.2          1 RAP108   0.0000
    28 C21        -11.7190    25.8290    31.7600 C.2          1 RAP108   0.0000
    29 C22        -10.9670    26.4720    30.8900 C.2          1 RAP108   0.0000
    30 C23        -10.5270    25.6960    29.6710 C.3          1 RAP108   0.0000
    31 C24         -9.0090    25.7600    29.5460 C.3          1 RAP108   0.0000
    32 C25         -8.2170    25.3540    30.7830 C.3          1 RAP108   0.0000
    33 C26         -6.8530    26.0230    30.7510 C.2          1 RAP108   0.0000
    34 O8          -5.9130    25.4750    30.1850 O.2          1 RAP108   0.0000
    35 C27         -6.6840    27.4140    31.3560 C.3          1 RAP108   0.0000
    36 O9          -5.5140    27.8840    30.7890 O.3          1 RAP108   0.0000
    37 C28         -6.4260    27.3350    32.8580 C.3          1 RAP108   0.0000
    38 O10         -5.3940    26.3690    33.0970 O.3          1 RAP108   0.0000
    39 C29         -7.6570    26.9730    33.7030 C.2          1 RAP108   0.0000
    40 C30         -7.8140    25.8040    34.2810 C.2          1 RAP108   0.0000
    41 C31         -8.9140    25.3530    35.1710 C.3          1 RAP108   0.0000
    42 C32         -8.5600    25.5570    36.6440 C.2          1 RAP108   0.0000
    43 O11         -8.2350    24.5910    37.3340 O.2          1 RAP108   0.0000
    44 C33         -8.6390    26.9610    37.2620 C.3          1 RAP108   0.0000
    45 C34         -7.4550    27.2730    38.2050 C.3          1 RAP108   0.0000
    46 C35         -7.3530    28.8080    38.5120 C.3          1 RAP108   0.0000
    47 C36         -6.6180    29.5420    37.3930 C.3          1 RAP108   0.0000
    48 C37         -5.2420    29.0570    36.9260 C.3          1 RAP108   0.0000
    49 C38         -4.8390    29.8360    35.6670 C.3          1 RAP108   0.0000
    50 C39         -3.4880    29.5080    35.0150 C.3          1 RAP108   0.0000
    51 O12         -3.1170    30.5270    34.1260 O.3          1 RAP108   0.0000
    52 C40         -2.3540    29.4910    36.0720 C.3          1 RAP108   0.0000
    53 O13         -1.1670    28.9200    35.5070 O.3          1 RAP108   0.0000
    54 C41         -2.7660    28.6820    37.3090 C.3          1 RAP108   0.0000
    55 C42         -4.0780    29.1300    37.9140 C.3          1 RAP108   0.0000
    56 C43        -10.8560    29.2870    43.5270 C.3          1 RAP108   0.0000
    57 C44        -12.8820    24.3040    36.8170 C.3          1 RAP108   0.0000
    58 C45        -11.1660    26.3030    28.4590 C.3          1 RAP108   0.0000
    59 C46         -8.0660    23.8360    30.8250 C.3          1 RAP108   0.0000
    60 C47         -8.6630    28.0830    33.8060 C.3          1 RAP108   0.0000
    61 C48         -9.1090    23.8700    34.8640 C.3          1 RAP108   0.0000
    62 C49         -8.7360    29.4250    38.6570 C.3          1 RAP108   0.0000
    63 C50        -15.8190    26.9460    37.4570 C.3          1 RAP108   0.0000
    64 C51         -5.7110    28.9190    29.9030 C.3          1 RAP108   0.0000
    65 C52         -4.0020    31.0140    33.1400 C.3          1 RAP108   0.0000
    66 H1          -6.8289    26.0546    42.4466 H            1 RAP108   0.0000
    67 H2          -6.8127    23.8354    42.9401 H            1 RAP108   0.0000
    68 H3          -5.7919    23.9863    41.6744 H            1 RAP108   0.0000
    69 H4          -7.2279    22.0667    41.5135 H            1 RAP108   0.0000
    70 H5          -7.3443    23.0649    40.2264 H            1 RAP108   0.0000
    71 H6          -9.2353    22.8596    42.3817 H            1 RAP108   0.0000
    72 H7          -9.5028    22.4470    40.8245 H            1 RAP108   0.0000
    73 H8         -10.4620    24.5789    41.3630 H            1 RAP108   0.0000
    74 H9          -9.3507    24.7006    40.1728 H            1 RAP108   0.0000
    75 H10        -13.1475    26.2590    43.3218 H            1 RAP108   0.0000
    76 H11        -10.2371    28.5779    41.6772 H            1 RAP108   0.0000
    77 H12        -11.6424    30.2910    41.0677 H            1 RAP108   0.0000
    78 H13        -12.8703    29.6860    41.9582 H            1 RAP108   0.0000
    79 H14        -12.0747    28.9914    39.3422 H            1 RAP108   0.0000
    80 H15        -13.5837    29.1053    39.9559 H            1 RAP108   0.0000
    81 H16        -13.6472    26.9552    40.5309 H            1 RAP108   0.0000
    82 H17        -12.3683    25.5800    39.0224 H            1 RAP108   0.0000
    83 H18        -11.6126    26.9321    38.5056 H            1 RAP108   0.0000
    84 H19        -13.5197    27.6380    37.3891 H            1 RAP108   0.0000
    85 H20        -12.8261    27.3348    35.3462 H            1 RAP108   0.0000
    86 H21        -11.7798    24.7797    34.2039 H            1 RAP108   0.0000
    87 H22        -12.7197    27.2410    32.9882 H            1 RAP108   0.0000
    88 H23        -11.9390    24.8782    31.5417 H            1 RAP108   0.0000
    89 H24        -10.7009    27.4258    31.0296 H            1 RAP108   0.0000
    90 H25        -10.8155    24.7426    29.7592 H            1 RAP108   0.0000
    91 H26         -8.7605    26.7018    29.3195 H            1 RAP108   0.0000
    92 H27         -8.7382    25.1546    28.7975 H            1 RAP108   0.0000
    93 H28         -8.7094    25.6557    31.5994 H            1 RAP108   0.0000
    94 H29         -7.4615    28.0063    31.1448 H            1 RAP108   0.0000
    95 H30         -6.0923    28.2271    33.1626 H            1 RAP108   0.0000
    96 H31         -5.2155    26.3079    34.0790 H            1 RAP108   0.0000
    97 H32         -7.0991    25.1292    34.0977 H            1 RAP108   0.0000
    98 H33         -9.7509    25.8550    34.9530 H            1 RAP108   0.0000
    99 H34         -9.4892    27.0322    37.7836 H            1 RAP108   0.0000
   100 H35         -8.6439    27.6347    36.5230 H            1 RAP108   0.0000
   101 H36         -6.5955    26.9206    37.8348 H            1 RAP108   0.0000
   102 H37         -6.8505    28.9347    39.3672 H            1 RAP108   0.0000
   103 H38         -6.5017    30.4875    37.6971 H            1 RAP108   0.0000
   104 H39         -7.2174    29.5205    36.5928 H            1 RAP108   0.0000
   105 H40         -5.3425    28.0984    36.6596 H            1 RAP108   0.0000
   106 H41         -4.8237    30.8059    35.9101 H            1 RAP108   0.0000
   107 H42         -5.5472    29.6759    34.9794 H            1 RAP108   0.0000
   108 H43         -3.5344    28.6297    34.5391 H            1 RAP108   0.0000
   109 H44         -2.1587    30.4311    36.3513 H            1 RAP108   0.0000
   110 H45         -1.3557    27.9835    35.2114 H            1 RAP108   0.0000
   111 H46         -2.0502    28.7754    38.0010 H            1 RAP108   0.0000
   112 H47         -2.8510    27.7213    37.0449 H            1 RAP108   0.0000
   113 H48         -4.2859    28.5430    38.6965 H            1 RAP108   0.0000
   114 H49         -3.9806    30.0759    38.2235 H            1 RAP108   0.0000
   115 H50        -10.5043    30.2122    43.3843 H            1 RAP108   0.0000
   116 H51        -11.7145    29.3319    44.0378 H            1 RAP108   0.0000
   117 H52        -10.1878    28.7525    44.0445 H            1 RAP108   0.0000
   118 H53        -12.5681    23.8458    35.9854 H            1 RAP108   0.0000
   119 H54        -12.2184    24.1554    37.5502 H            1 RAP108   0.0000
   120 H55        -13.7687    23.9302    37.0892 H            1 RAP108   0.0000
   121 H56        -10.8823    25.7976    27.6441 H            1 RAP108   0.0000
   122 H57        -12.1609    26.2586    28.5492 H            1 RAP108   0.0000
   123 H58        -10.8812    27.2579    28.3749 H            1 RAP108   0.0000
   124 H59         -7.5458    23.5751    31.6382 H            1 RAP108   0.0000
   125 H60         -8.9710    23.4118    30.8579 H            1 RAP108   0.0000
   126 H61         -7.5823    23.5264    30.0064 H            1 RAP108   0.0000
   127 H62         -9.4347    27.7825    34.3665 H            1 RAP108   0.0000
   128 H63         -8.2355    28.8822    34.2285 H            1 RAP108   0.0000
   129 H64         -8.9888    28.3235    32.8917 H            1 RAP108   0.0000
   130 H65         -9.8430    23.5048    35.4366 H            1 RAP108   0.0000
   131 H66         -9.3510    23.7581    33.9002 H            1 RAP108   0.0000
   132 H67         -8.2607    23.3759    35.0542 H            1 RAP108   0.0000
   133 H68         -8.6465    30.4017    38.8520 H            1 RAP108   0.0000
   134 H69         -9.2474    29.3003    37.8068 H            1 RAP108   0.0000
   135 H70         -9.2232    28.9785    39.4076 H            1 RAP108   0.0000
   136 H71        -16.6843    26.5782    37.7976 H            1 RAP108   0.0000
   137 H72        -15.7677    27.9231    37.6637 H            1 RAP108   0.0000
   138 H73        -15.7660    26.8114    36.4675 H            1 RAP108   0.0000
   139 H74         -4.8301    29.2111    29.5305 H            1 RAP108   0.0000
   140 H75         -6.3027    28.6117    29.1577 H            1 RAP108   0.0000
   141 H76         -6.1433    29.6860    30.3772 H            1 RAP108   0.0000
   142 H77         -3.5502    31.7335    32.6126 H            1 RAP108   0.0000
   143 H78         -4.2637    30.2671    32.5288 H            1 RAP108   0.0000
   144 H79         -4.8191    31.3864    33.5801 H            1 RAP108   0.0000
@<TRIPOS>BOND
     1    1    2       1
     2    1    3       2
     3    1    4       1
     4    2   45       1
     5    4    5       1
     6    4    9       1
     7    5    6       1
     8    6    7       1
     9    7    8       1
    10    8    9       1
    11    9   10      am
    12   10   11       2
    13   10   12       1
    14   12   13       2
    15   12   14       1
    16   14   15       1
    17   14   16       1
    18   14   17       1
    19   15   20       1
    20   17   18       1
    21   17   56       1
    22   18   19       1
    23   19   20       1
    24   20   21       1
    25   21   22       1
    26   22   23       1
    27   22   24       1
    28   23   63       1
    29   24   25       2
    30   24   57       1
    31   25   26       1
    32   26   27       2
    33   27   28       1
    34   28   29       2
    35   29   30       1
    36   30   31       1
    37   30   58       1
    38   31   32       1
    39   32   33       1
    40   32   59       1
    41   33   34       2
    42   33   35       1
    43   35   36       1
    44   35   37       1
    45   36   64       1
    46   37   38       1
    47   37   39       1
    48   39   40       2
    49   39   60       1
    50   40   41       1
    51   41   42       1
    52   41   61       1
    53   42   43       2
    54   42   44       1
    55   44   45       1
    56   45   46       1
    57   46   47       1
    58   46   62       1
    59   47   48       1
    60   48   49       1
    61   48   55       1
    62   49   50       1
    63   50   51       1
    64   50   52       1
    65   51   65       1
    66   52   53       1
    67   52   54       1
    68   54   55       1
    69    4   66       1
    70    5   67       1
    71    5   68       1
    72    6   69       1
    73    6   70       1
    74    7   71       1
    75    7   72       1
    76    8   73       1
    77    8   74       1
    78   16   75       1
    79   17   76       1
    80   18   77       1
    81   18   78       1
    82   19   79       1
    83   19   80       1
    84   20   81       1
    85   21   82       1
    86   21   83       1
    87   22   84       1
    88   25   85       1
    89   26   86       1
    90   27   87       1
    91   28   88       1
    92   29   89       1
    93   30   90       1
    94   31   91       1
    95   31   92       1
    96   32   93       1
    97   35   94       1
    98   37   95       1
    99   38   96       1
   100   40   97       1
   101   41   98       1
   102   44   99       1
   103   44  100       1
   104   45  101       1
   105   46  102       1
   106   47  103       1
   107   47  104       1
   108   48  105       1
   109   49  106       1
   110   49  107       1
   111   50  108       1
   112   52  109       1
   113   53  110       1
   114   54  111       1
   115   54  112       1
   116   55  113       1
   117   55  114       1
   118   56  115       1
   119   56  116       1
   120   56  117       1
   121   57  118       1
   122   57  119       1
   123   57  120       1
   124   58  121       1
   125   58  122       1
   126   58  123       1
   127   59  124       1
   128   59  125       1
   129   59  126       1
   130   60  127       1
   131   60  128       1
   132   60  129       1
   133   61  130       1
   134   61  131       1
   135   61  132       1
   136   62  133       1
   137   62  134       1
   138   62  135       1
   139   63  136       1
   140   63  137       1
   141   63  138       1
   142   64  139       1
   143   64  140       1
   144   64  141       1
   145   65  142       1
   146   65  143       1
   147   65  144       1
@<TRIPOS>SUBSTRUCTURE
     1 RAP108      1 GROUP             4 A     RAP     0 **** RAP A 108
