@<TRIPOS>MOLECULE
4hy0_1AQ_4_ligand
   90    94     1     0     0
SMALL
NO_CHARGES


@<TRIPOS>ATOM
     1 N40         -2.4990    10.6130   -11.0880 N.4          1 1AQ403   1.0000
     2 C41         -1.4220     9.5990   -11.1770 C.3          1 1AQ403   0.0000
     3 C37         -3.1160    10.7420    -9.7500 C.3          1 1AQ403   0.0000
     4 C39         -4.1900    11.8340    -9.7080 C.3          1 1AQ403   0.0000
     5 C35         -3.7210     9.4250    -9.3450 C.2          1 1AQ403   0.0000
     6 O36         -4.0940     8.6170   -10.1730 O.2          1 1AQ403   0.0000
     7 C30         -5.5370     8.2910    -6.6150 C.2          1 1AQ403   0.0000
     8 O31         -5.5930     9.4320    -6.2040 O.2          1 1AQ403   0.0000
     9 C32         -4.3380     7.9420    -7.4620 C.3          1 1AQ403   0.0000
    10 N34         -3.8220     9.1830    -8.0310 N.am         1 1AQ403   0.0000
    11 C42         -3.0810     7.4980    -6.6930 C.3          1 1AQ403   0.0000
    12 C43         -3.2820     6.7470    -5.3740 C.3          1 1AQ403   0.0000
    13 C44         -1.9290     6.7960    -4.6410 C.3          1 1AQ403   0.0000
    14 C45         -0.7280     6.3520    -5.5070 C.3          1 1AQ403   0.0000
    15 F46          0.4330     6.7890    -4.8620 F            1 1AQ403   0.0000
    16 F47         -0.7060     4.9590    -5.5950 F            1 1AQ403   0.0000
    17 C48         -0.7330     6.8920    -6.9470 C.3          1 1AQ403   0.0000
    18 C49         -2.1160     6.6860    -7.5730 C.3          1 1AQ403   0.0000
    19 C1          -7.9100     0.4310    -6.7820 C.3          1 1AQ403   0.0000
    20 C2          -9.2150     1.0470    -6.2570 C.3          1 1AQ403   0.0000
    21 O3          -8.9970     2.3320    -5.6350 O.3          1 1AQ403   0.0000
    22 C4          -9.2410     3.4970    -6.4500 C.3          1 1AQ403   0.0000
    23 C6          -7.9450     3.9660    -7.1820 C.3          1 1AQ403   0.0000
    24 C7          -7.9240     5.4890    -6.9720 C.3          1 1AQ403   0.0000
    25 C9          -6.5030     6.0220    -6.8080 C.3          1 1AQ403   0.0000
    26 N10         -6.5450     7.4230    -6.3160 N.am         1 1AQ403   0.0000
    27 C11         -7.6600     7.9220    -5.4650 C.3          1 1AQ403   0.0000
    28 C13         -8.9550     7.0840    -5.5280 C.3          1 1AQ403   0.0000
    29 N14         -8.6010     5.6830    -5.6620 N.4          1 1AQ403   1.0000
    30 C15         -9.6750     4.6890    -5.5620 C.3          1 1AQ403   0.0000
    31 C16         -7.1830     7.9670    -4.0300 C.2          1 1AQ403   0.0000
    32 O17         -6.2630     7.2510    -3.6840 O.2          1 1AQ403   0.0000
    33 N18         -7.7720     8.8080    -3.1480 N.am         1 1AQ403   0.0000
    34 C19         -7.3380     8.8870    -1.7470 C.3          1 1AQ403   0.0000
    35 C21         -7.9690     7.7010    -0.9910 C.3          1 1AQ403   0.0000
    36 C22         -8.4880     8.1000     0.4020 C.3          1 1AQ403   0.0000
    37 O23         -9.3250     9.2550     0.2840 O.3          1 1AQ403   0.0000
    38 C24         -8.7050    10.3660    -0.1960 C.ar         1 1AQ403   0.0000
    39 C25         -9.0480    11.6200     0.3180 C.ar         1 1AQ403   0.0000
    40 C26         -8.4110    12.7480    -0.1700 C.ar         1 1AQ403   0.0000
    41 C27         -7.4390    12.6270    -1.1580 C.ar         1 1AQ403   0.0000
    42 C28         -7.0960    11.3810    -1.6590 C.ar         1 1AQ403   0.0000
    43 C29         -7.7300    10.2410    -1.1820 C.ar         1 1AQ403   0.0000
    44 H1          -3.2160    10.3641   -11.7391 H            1 1AQ403   0.0000
    45 H2          -1.0615     9.5766   -12.1095 H            1 1AQ403   0.0000
    46 H3          -0.6874     9.8362   -10.5413 H            1 1AQ403   0.0000
    47 H4          -1.7903     8.6999   -10.9403 H            1 1AQ403   0.0000
    48 H5          -2.4000    10.9769    -9.0926 H            1 1AQ403   0.0000
    49 H6          -4.5778    11.8849    -8.7877 H            1 1AQ403   0.0000
    50 H7          -3.7798    12.7144    -9.9461 H            1 1AQ403   0.0000
    51 H8          -4.9134    11.6154   -10.3629 H            1 1AQ403   0.0000
    52 H9          -4.5771     7.2857    -8.1777 H            1 1AQ403   0.0000
    53 H10         -3.5246     9.8990    -7.3994 H            1 1AQ403   0.0000
    54 H11         -2.5938     8.3388    -6.4571 H            1 1AQ403   0.0000
    55 H12         -3.5458     5.7989    -5.5517 H            1 1AQ403   0.0000
    56 H13         -3.9896     7.1927    -4.8257 H            1 1AQ403   0.0000
    57 H14         -1.9813     6.1944    -3.8439 H            1 1AQ403   0.0000
    58 H15         -1.7687     7.7358    -4.3394 H            1 1AQ403   0.0000
    59 H16         -0.0478     6.4035    -7.4873 H            1 1AQ403   0.0000
    60 H17         -0.5153     7.8680    -6.9364 H            1 1AQ403   0.0000
    61 H18         -2.1293     7.0252    -8.5136 H            1 1AQ403   0.0000
    62 H19         -2.3642     5.7173    -7.5644 H            1 1AQ403   0.0000
    63 H20         -8.1053    -0.4546    -7.2034 H            1 1AQ403   0.0000
    64 H21         -7.5032     1.0412    -7.4619 H            1 1AQ403   0.0000
    65 H22         -7.2716     0.3052    -6.0226 H            1 1AQ403   0.0000
    66 H23         -9.6164     0.4265    -5.5833 H            1 1AQ403   0.0000
    67 H24         -9.8480     1.1625    -7.0225 H            1 1AQ403   0.0000
    68 H25         -9.9551     3.2972    -7.1209 H            1 1AQ403   0.0000
    69 H26         -7.9871     3.7427    -8.1558 H            1 1AQ403   0.0000
    70 H27         -7.1354     3.5409    -6.7772 H            1 1AQ403   0.0000
    71 H28         -8.4087     5.9644    -7.7062 H            1 1AQ403   0.0000
    72 H29         -6.0340     5.9940    -7.6907 H            1 1AQ403   0.0000
    73 H30         -6.0091     5.4537    -6.1499 H            1 1AQ403   0.0000
    74 H31         -7.8777     8.8551    -5.7511 H            1 1AQ403   0.0000
    75 H32         -9.5016     7.3691    -6.3154 H            1 1AQ403   0.0000
    76 H33         -9.4831     7.2183    -4.6895 H            1 1AQ403   0.0000
    77 H34         -9.7864     4.3926    -4.6134 H            1 1AQ403   0.0000
    78 H35        -10.5361     5.0738    -5.8943 H            1 1AQ403   0.0000
    79 H36         -8.5227     9.3911    -3.4585 H            1 1AQ403   0.0000
    80 H37         -6.3425     8.7989    -1.7122 H            1 1AQ403   0.0000
    81 H38         -7.2788     6.9854    -0.8834 H            1 1AQ403   0.0000
    82 H39         -8.7341     7.3479    -1.5294 H            1 1AQ403   0.0000
    83 H40         -7.7137     8.3086     0.9995 H            1 1AQ403   0.0000
    84 H41         -9.0150     7.3443     0.7909 H            1 1AQ403   0.0000
    85 H42         -9.7455    11.7012     1.0300 H            1 1AQ403   0.0000
    86 H43         -8.6497    13.6507     0.1880 H            1 1AQ403   0.0000
    87 H44         -6.9843    13.4454    -1.5094 H            1 1AQ403   0.0000
    88 H45         -6.3915    11.3028    -2.3644 H            1 1AQ403   0.0000
    89 H46         -2.1132    11.5004   -11.3402 H            1 1AQ403   0.0000
    90 H47         -7.9335     5.4741    -4.9473 H            1 1AQ403   0.0000
@<TRIPOS>BOND
     1    1    2       1
     2    1    3       1
     3    3    4       1
     4    3    5       1
     5    5    6       2
     6    5   10      am
     7    7    8       2
     8    7    9       1
     9    7   26      am
    10    9   10       1
    11    9   11       1
    12   11   12       1
    13   11   18       1
    14   12   13       1
    15   13   14       1
    16   14   15       1
    17   14   16       1
    18   14   17       1
    19   17   18       1
    20   19   20       1
    21   20   21       1
    22   21   22       1
    23   22   23       1
    24   22   30       1
    25   23   24       1
    26   24   25       1
    27   24   29       1
    28   25   26       1
    29   26   27       1
    30   27   28       1
    31   27   31       1
    32   28   29       1
    33   29   30       1
    34   31   32       2
    35   31   33      am
    36   33   34       1
    37   34   35       1
    38   34   43       1
    39   35   36       1
    40   36   37       1
    41   37   38       1
    42   38   39      ar
    43   38   43      ar
    44   39   40      ar
    45   40   41      ar
    46   41   42      ar
    47   42   43      ar
    48    1   44       1
    49    2   45       1
    50    2   46       1
    51    2   47       1
    52    3   48       1
    53    4   49       1
    54    4   50       1
    55    4   51       1
    56    9   52       1
    57   10   53       1
    58   11   54       1
    59   12   55       1
    60   12   56       1
    61   13   57       1
    62   13   58       1
    63   17   59       1
    64   17   60       1
    65   18   61       1
    66   18   62       1
    67   19   63       1
    68   19   64       1
    69   19   65       1
    70   20   66       1
    71   20   67       1
    72   22   68       1
    73   23   69       1
    74   23   70       1
    75   24   71       1
    76   25   72       1
    77   25   73       1
    78   27   74       1
    79   28   75       1
    80   28   76       1
    81   30   77       1
    82   30   78       1
    83   33   79       1
    84   34   80       1
    85   35   81       1
    86   35   82       1
    87   36   83       1
    88   36   84       1
    89   39   85       1
    90   40   86       1
    91   41   87       1
    92   42   88       1
    93    1   89       1
    94   29   90       1
@<TRIPOS>SUBSTRUCTURE
     1 1AQ403      1 GROUP             4 D     1AQ     0 **** 1AQ D 403
