@<TRIPOS>MOLECULE
3daw_ATP_1_ligand
   43    45     1     0     0
SMALL
NO_CHARGES


@<TRIPOS>ATOM
     1 PG           8.9630    -2.0460    24.2490 P.3          1 ATP377   0.0000
     2 O1G          8.7520    -3.2720    23.3850 O.co2        1 ATP377   0.0000
     3 O2G         10.2330    -1.2960    23.9070 O.co2        1 ATP377  -1.0000
     4 O3G          7.7050    -1.1940    24.3870 O.co2        1 ATP377  -1.0000
     5 PB          10.0060    -2.1510    26.9970 P.3          1 ATP377   0.0000
     6 O1B          9.2180    -2.4050    28.2590 O.co2        1 ATP377   0.0000
     7 O2B         10.6230    -0.7860    26.8520 O.co2        1 ATP377  -1.0000
     8 O3B          9.0870    -2.6370    25.7590 O.3          1 ATP377   0.0000
     9 PA          12.6100    -3.1190    27.5450 P.3          1 ATP377   0.0000
    10 O1A         12.5560    -2.5400    28.9290 O.co2        1 ATP377   0.0000
    11 O2A         13.6070    -2.5190    26.5840 O.co2        1 ATP377  -1.0000
    12 O3A         11.1600    -3.2810    26.8630 O.3          1 ATP377   0.0000
    13 O5'         13.0030    -4.6740    27.7380 O.3          1 ATP377   0.0000
    14 C5'         12.2220    -5.6050    28.5090 C.3          1 ATP377   0.0000
    15 C4'         12.2520    -6.9980    27.8800 C.3          1 ATP377   0.0000
    16 O4'         13.6120    -7.3770    27.6610 O.3          1 ATP377   0.0000
    17 C3'         11.6320    -8.0810    28.7580 C.3          1 ATP377   0.0000
    18 O3'         10.8730    -8.9740    27.9430 O.3          1 ATP377   0.0000
    19 C2'         12.8330    -8.7990    29.3510 C.3          1 ATP377   0.0000
    20 O2'         12.6420   -10.1840    29.7360 O.3          1 ATP377   0.0000
    21 C1'         13.8280    -8.6430    28.2110 C.3          1 ATP377   0.0000
    22 N9          15.1620    -8.7660    28.7710 N.pl3        1 ATP377   0.0000
    23 C8          15.6880    -8.0600    29.7890 C.2          1 ATP377   0.0000
    24 N7          16.9480    -8.4890    30.0550 N.2          1 ATP377   0.0000
    25 C5          17.2130    -9.4880    29.1840 C.ar         1 ATP377   0.0000
    26 C6          18.3360   -10.4060    28.9050 C.ar         1 ATP377   0.0000
    27 N6          19.4780   -10.3310    29.6130 N.pl3        1 ATP377   0.0000
    28 N1          18.1980   -11.3050    27.9150 N.ar         1 ATP377   0.0000
    29 C2          17.0670   -11.4160    27.1960 C.ar         1 ATP377   0.0000
    30 N3          16.0020   -10.6250    27.3950 N.ar         1 ATP377   0.0000
    31 C4          16.0240    -9.6650    28.3470 C.ar         1 ATP377   0.0000
    32 H5'1        11.2757    -5.2842    28.5482 H            1 ATP377   0.0000
    33 H5'2        12.5952    -5.6564    29.4353 H            1 ATP377   0.0000
    34 H4'         11.7729    -6.9725    27.0026 H            1 ATP377   0.0000
    35 H3'         11.0635    -7.6792    29.4759 H            1 ATP377   0.0000
    36 H5           9.9311    -8.6449    27.8758 H            1 ATP377   0.0000
    37 H2'         13.1618    -8.2838    30.1425 H            1 ATP377   0.0000
    38 H7          13.2447   -10.4028    30.5034 H            1 ATP377   0.0000
    39 H1'         13.6763    -9.3503    27.5206 H            1 ATP377   0.0000
    40 H9          15.2183    -7.3254    30.2787 H            1 ATP377   0.0000
    41 H10         20.2313   -10.9581    29.4147 H            1 ATP377   0.0000
    42 H11         19.5733    -9.6482    30.3374 H            1 ATP377   0.0000
    43 H12         17.0179   -12.1166    26.4841 H            1 ATP377   0.0000
@<TRIPOS>BOND
     1    1    2      ar
     2    1    3      ar
     3    1    4      ar
     4    1    8       1
     5    5    6      ar
     6    5    7      ar
     7    5    8       1
     8    5   12       1
     9    9   10      ar
    10    9   11      ar
    11    9   12       1
    12    9   13       1
    13   13   14       1
    14   14   15       1
    15   15   16       1
    16   15   17       1
    17   16   21       1
    18   17   18       1
    19   17   19       1
    20   19   20       1
    21   19   21       1
    22   21   22       1
    23   22   23       1
    24   22   31       1
    25   23   24       2
    26   24   25       1
    27   25   26      ar
    28   25   31      ar
    29   26   27       1
    30   26   28      ar
    31   28   29      ar
    32   29   30      ar
    33   30   31      ar
    34   29   43       1
    35   27   42       1
    36   27   41       1
    37   23   40       1
    38   14   32       1
    39   14   33       1
    40   15   34       1
    41   17   35       1
    42   18   36       1
    43   19   37       1
    44   20   38       1
    45   21   39       1
@<TRIPOS>SUBSTRUCTURE
     1 ATP377      1 GROUP             4 A     ATP     0 **** ATP A 377
