@<TRIPOS>MOLECULE
1z0u_NAP_1_ligand
   73    77     1     0     0
SMALL
NO_CHARGES


@<TRIPOS>ATOM
     1 PA          -8.8230    12.0400    11.1290 P.3          1 NAP3076   0.0000
     2 O1A        -10.1090    11.3620    10.7210 O.co2        1 NAP3076   0.0000
     3 O2A         -8.6920    13.5040    10.6480 O.co2        1 NAP3076  -1.0000
     4 O5B         -8.6960    12.0240    12.7420 O.3          1 NAP3076   0.0000
     5 C5B         -8.9950    10.8980    13.5390 C.3          1 NAP3076   0.0000
     6 C4B         -9.4920    11.3830    14.8930 C.3          1 NAP3076   0.0000
     7 O4B         -8.4840    12.1210    15.5770 O.3          1 NAP3076   0.0000
     8 C3B        -10.6920    12.3190    14.7680 C.3          1 NAP3076   0.0000
     9 O3B        -11.6820    11.9470    15.7100 O.3          1 NAP3076   0.0000
    10 C2B        -10.1120    13.6970    15.0840 C.3          1 NAP3076   0.0000
    11 O2B        -11.0340    14.6260    15.6050 O.3          1 NAP3076   0.0000
    12 C1B         -9.0910    13.2870    16.1240 C.3          1 NAP3076   0.0000
    13 N9A         -8.0350    14.2690    16.4320 N.pl3        1 NAP3076   0.0000
    14 C8A         -7.2770    14.9740    15.5500 C.2          1 NAP3076   0.0000
    15 N7A         -6.4000    15.7190    16.2690 N.2          1 NAP3076   0.0000
    16 C5A         -6.5830    15.4870    17.5920 C.ar         1 NAP3076   0.0000
    17 C6A         -5.9570    15.9560    18.7490 C.ar         1 NAP3076   0.0000
    18 N6A         -4.7140    16.4190    18.6740 N.pl3        1 NAP3076   0.0000
    19 N1A         -6.4000    15.5090    19.9860 N.ar         1 NAP3076   0.0000
    20 C2A         -7.4360    14.5930    20.0850 C.ar         1 NAP3076   0.0000
    21 N3A         -8.0280    14.1300    18.9420 N.ar         1 NAP3076   0.0000
    22 C4A         -7.6160    14.5650    17.7110 C.ar         1 NAP3076   0.0000
    23 O3          -7.7320    11.0130    10.5490 O.3          1 NAP3076   0.0000
    24 PN          -6.3880    11.4710     9.8130 P.3          1 NAP3076   0.0000
    25 O1N         -6.7160    12.3670     8.6620 O.co2        1 NAP3076   0.0000
    26 O2N         -5.6210    10.2230     9.6160 O.co2        1 NAP3076  -1.0000
    27 O5D         -6.0630    12.3260    11.1420 O.3          1 NAP3076   0.0000
    28 C5D         -4.9480    13.0950    11.4580 C.3          1 NAP3076   0.0000
    29 C4D         -4.7050    12.8970    12.9480 C.3          1 NAP3076   0.0000
    30 O4D         -5.3560    11.7420    13.4750 O.3          1 NAP3076   0.0000
    31 C3D         -3.2330    12.6980    13.2070 C.3          1 NAP3076   0.0000
    32 O3D         -2.6680    13.9740    13.3890 O.3          1 NAP3076   0.0000
    33 C2D         -3.2010    11.7850    14.4180 C.3          1 NAP3076   0.0000
    34 O2D         -3.0330    12.5360    15.5990 O.3          1 NAP3076   0.0000
    35 C1D         -4.5500    11.0870    14.4350 C.3          1 NAP3076   0.0000
    36 N1N         -4.3890     9.6400    14.1480 N.ar         1 NAP3076   1.0000
    37 C2N         -4.7170     8.7300    15.1030 C.ar         1 NAP3076   0.0000
    38 C3N         -4.5780     7.3580    14.8540 C.ar         1 NAP3076   0.0000
    39 C7N         -4.7340     6.4100    15.9960 C.2          1 NAP3076   0.0000
    40 O7N         -4.4820     5.0030    15.8770 O.2          1 NAP3076   0.0000
    41 N7N         -5.0880     6.9890    17.1340 N.am         1 NAP3076   0.0000
    42 C4N         -4.0720     6.9290    13.6400 C.ar         1 NAP3076   0.0000
    43 C5N         -3.7390     7.8760    12.6720 C.ar         1 NAP3076   0.0000
    44 C6N         -3.9020     9.2310    12.9300 C.ar         1 NAP3076   0.0000
    45 P2B        -12.3880    15.0950    14.8160 P.3          1 NAP3076   0.0000
    46 O1X        -12.8610    16.2320    15.6570 O.co2        1 NAP3076   0.0000
    47 O2X        -12.0070    15.6050    13.4230 O.co2        1 NAP3076  -1.0000
    48 O3X        -13.3690    13.9120    14.6390 O.co2        1 NAP3076  -1.0000
    49 H5B1        -8.1722    10.3429    13.6608 H            1 NAP3076   0.0000
    50 H5B2        -9.7044    10.3499    13.0959 H            1 NAP3076   0.0000
    51 H4B         -9.7510    10.5925    15.4479 H            1 NAP3076   0.0000
    52 H3B        -11.0621    12.2963    13.8393 H            1 NAP3076   0.0000
    53 H5         -12.4676    12.5603    15.6277 H            1 NAP3076   0.0000
    54 H2B         -9.6553    14.0749    14.2786 H            1 NAP3076   0.0000
    55 H1B         -9.5659    13.0421    16.9693 H            1 NAP3076   0.0000
    56 H8A         -7.3523    14.9481    14.5532 H            1 NAP3076   0.0000
    57 H6A1        -4.2560    16.7573    19.4961 H            1 NAP3076   0.0000
    58 H6A2        -4.2364    16.4292    17.7955 H            1 NAP3076   0.0000
    59 H2A         -7.7466    14.2748    20.9807 H            1 NAP3076   0.0000
    60 H5D1        -5.1245    14.0593    11.2605 H            1 NAP3076   0.0000
    61 H5D2        -4.1544    12.7871    10.9333 H            1 NAP3076   0.0000
    62 H4D         -5.0197    13.7068    13.4432 H            1 NAP3076   0.0000
    63 H3D         -2.8066    12.2436    12.4249 H            1 NAP3076   0.0000
    64 H16         -1.6877    13.8826    13.5640 H            1 NAP3076   0.0000
    65 H2D         -2.4651    11.1141    14.3266 H            1 NAP3076   0.0000
    66 H18         -2.1724    13.0431    15.5520 H            1 NAP3076   0.0000
    67 H1D         -4.9636    11.1969    15.3388 H            1 NAP3076   0.0000
    68 H2N         -5.0598     9.0417    15.9892 H            1 NAP3076   0.0000
    69 H7N1        -5.2175     6.4362    17.9572 H            1 NAP3076   0.0000
    70 H7N2        -5.2257     7.9788    17.1697 H            1 NAP3076   0.0000
    71 H4N         -3.9468     5.9535    13.4591 H            1 NAP3076   0.0000
    72 H5N         -3.3809     7.5779    11.7872 H            1 NAP3076   0.0000
    73 H6N         -3.6657     9.9066    12.2317 H            1 NAP3076   0.0000
@<TRIPOS>BOND
     1    1    2      ar
     2    1    3      ar
     3    1    4       1
     4    1   23       1
     5    4    5       1
     6    5    6       1
     7    6    7       1
     8    6    8       1
     9    7   12       1
    10    8    9       1
    11    8   10       1
    12   10   11       1
    13   10   12       1
    14   11   45       1
    15   12   13       1
    16   13   14       1
    17   13   22       1
    18   14   15       2
    19   15   16       1
    20   16   17      ar
    21   16   22      ar
    22   17   18       1
    23   17   19      ar
    24   19   20      ar
    25   20   21      ar
    26   21   22      ar
    27   23   24       1
    28   24   25      ar
    29   24   26      ar
    30   24   27       1
    31   27   28       1
    32   28   29       1
    33   29   30       1
    34   29   31       1
    35   30   35       1
    36   31   32       1
    37   31   33       1
    38   33   34       1
    39   33   35       1
    40   35   36       1
    41   36   37      ar
    42   36   44      ar
    43   37   38      ar
    44   38   39       1
    45   38   42      ar
    46   39   40       2
    47   39   41      am
    48   42   43      ar
    49   43   44      ar
    50   45   46      ar
    51   45   47      ar
    52   45   48      ar
    53   43   72       1
    54    5   49       1
    55    5   50       1
    56    6   51       1
    57    8   52       1
    58    9   53       1
    59   10   54       1
    60   12   55       1
    61   14   56       1
    62   18   57       1
    63   18   58       1
    64   20   59       1
    65   44   73       1
    66   28   60       1
    67   28   61       1
    68   29   62       1
    69   31   63       1
    70   32   64       1
    71   33   65       1
    72   34   66       1
    73   35   67       1
    74   37   68       1
    75   41   69       1
    76   41   70       1
    77   42   71       1
@<TRIPOS>SUBSTRUCTURE
     1 NAP3076     1 GROUP             4 A     NAP     0 **** NAP A3076
