@<TRIPOS>MOLECULE
3enk_UPG_2_ligand
   58    60     1     0     0
SMALL
NO_CHARGES


@<TRIPOS>ATOM
     1 N1          31.9310     5.9180   -37.6190 N.pl3        1 UPG342   0.0000
     2 C2          32.1770     6.8100   -38.7060 C.2          1 UPG342   0.0000
     3 N3          31.2260     7.0140   -39.6260 N.pl3        1 UPG342   0.0000
     4 C4          30.0240     6.4240   -39.5560 C.2          1 UPG342   0.0000
     5 C5          29.7530     5.5460   -38.5040 C.2          1 UPG342   0.0000
     6 C6          30.7280     5.3180   -37.5380 C.2          1 UPG342   0.0000
     7 O2          33.2720     7.4080   -38.8210 O.2          1 UPG342   0.0000
     8 O4          29.1490     6.6590   -40.4320 O.2          1 UPG342   0.0000
     9 C1C         32.9710     5.6870   -36.5970 C.3          1 UPG342   0.0000
    10 C2C         32.5680     6.1400   -35.1910 C.3          1 UPG342   0.0000
    11 O2C         32.9430     7.4900   -34.8600 O.3          1 UPG342   0.0000
    12 C3C         33.2760     5.1400   -34.2940 C.3          1 UPG342   0.0000
    13 C4C         33.4200     3.8820   -35.1440 C.3          1 UPG342   0.0000
    14 O4C         33.2320     4.2840   -36.4940 O.3          1 UPG342   0.0000
    15 O3C         34.5710     5.6730   -33.9710 O.3          1 UPG342   0.0000
    16 C5C         32.3710     2.8030   -34.8400 C.3          1 UPG342   0.0000
    17 O5C         31.0890     3.4430   -34.7810 O.3          1 UPG342   0.0000
    18 PA          29.7130     2.6280   -34.6650 P.3          1 UPG342   0.0000
    19 O1A         28.5910     3.6310   -34.6010 O.co2        1 UPG342   0.0000
    20 O2A         29.7790     1.5300   -35.7080 O.co2        1 UPG342  -1.0000
    21 O3A         29.8980     1.9340   -33.2110 O.3          1 UPG342   0.0000
    22 PB          30.1880     2.6900   -31.8080 P.3          1 UPG342   0.0000
    23 O1B         31.5660     2.3120   -31.3330 O.co2        1 UPG342   0.0000
    24 O2B         29.7250     4.1330   -31.7980 O.co2        1 UPG342  -1.0000
    25 O3B         29.1690     1.8170   -30.9360 O.3          1 UPG342   0.0000
    26 C1'         27.9590     1.3120   -31.5080 C.3          1 UPG342   0.0000
    27 C2'         27.6550    -0.1160   -31.0750 C.3          1 UPG342   0.0000
    28 C3'         27.0690    -0.2030   -29.6520 C.3          1 UPG342   0.0000
    29 C4'         27.3280     1.0850   -28.8680 C.3          1 UPG342   0.0000
    30 C5'         26.8440     2.3260   -29.6310 C.3          1 UPG342   0.0000
    31 C6'         27.5710     3.6110   -29.2370 C.3          1 UPG342   0.0000
    32 O2'         26.7250    -0.5930   -32.0420 O.3          1 UPG342   0.0000
    33 O3'         25.6470    -0.4680   -29.6570 O.3          1 UPG342   0.0000
    34 O4'         26.6360     1.0260   -27.6250 O.3          1 UPG342   0.0000
    35 O5'         26.8980     2.1310   -31.0580 O.3          1 UPG342   0.0000
    36 O6'         27.2380     4.6540   -30.1760 O.3          1 UPG342   0.0000
    37 H1          31.4188     7.6275   -40.3918 H            1 UPG342   0.0000
    38 H2          28.8671     5.0859   -38.4457 H            1 UPG342   0.0000
    39 H3          30.5333     4.7017   -36.7750 H            1 UPG342   0.0000
    40 H1C         33.8098     6.1593   -36.8677 H            1 UPG342   0.0000
    41 H2C         31.5792     6.0370   -35.0827 H            1 UPG342   0.0000
    42 H6          32.2827     7.8701   -34.2123 H            1 UPG342   0.0000
    43 H3C         32.7444     4.9577   -33.4669 H            1 UPG342   0.0000
    44 H4C         34.3378     3.5015   -35.0302 H            1 UPG342   0.0000
    45 H9          34.5279     6.6720   -33.9638 H            1 UPG342   0.0000
    46 H5C1        32.5748     2.3678   -33.9630 H            1 UPG342   0.0000
    47 H5C2        32.3736     2.1125   -35.5633 H            1 UPG342   0.0000
    48 H1'         28.0161     1.3550   -32.5054 H            1 UPG342   0.0000
    49 H2'         28.4916    -0.6618   -31.1226 H            1 UPG342   0.0000
    50 H3'         27.5236    -0.9546   -29.1740 H            1 UPG342   0.0000
    51 H4'         28.3089     1.1701   -28.6930 H            1 UPG342   0.0000
    52 H5'         25.8812     2.4542   -29.3931 H            1 UPG342   0.0000
    53 H6'1        28.5584     3.4533   -29.2491 H            1 UPG342   0.0000
    54 H6'2        27.2887     3.8862   -28.3180 H            1 UPG342   0.0000
    55 H19         27.1076    -1.3914   -32.5070 H            1 UPG342   0.0000
    56 H20         25.3252    -0.5427   -30.6008 H            1 UPG342   0.0000
    57 H21         26.3816     1.9504   -27.3409 H            1 UPG342   0.0000
    58 H6'         27.8941     4.6451   -30.9306 H            1 UPG342   0.0000
@<TRIPOS>BOND
     1    1    2       1
     2    1    6       1
     3    1    9       1
     4    2    3       1
     5    2    7       2
     6    3    4       1
     7    4    5       1
     8    4    8       2
     9    5    6       2
    10    9   10       1
    11    9   14       1
    12   10   11       1
    13   10   12       1
    14   12   13       1
    15   12   15       1
    16   13   14       1
    17   13   16       1
    18   16   17       1
    19   17   18       1
    20   18   19      ar
    21   18   20      ar
    22   18   21       1
    23   21   22       1
    24   22   23      ar
    25   22   24      ar
    26   22   25       1
    27   25   26       1
    28   26   27       1
    29   26   35       1
    30   27   28       1
    31   27   32       1
    32   28   29       1
    33   28   33       1
    34   29   30       1
    35   29   34       1
    36   30   31       1
    37   30   35       1
    38   31   36       1
    39    3   37       1
    40    5   38       1
    41    6   39       1
    42    9   40       1
    43   10   41       1
    44   11   42       1
    45   12   43       1
    46   13   44       1
    47   15   45       1
    48   16   46       1
    49   16   47       1
    50   36   58       1
    51   34   57       1
    52   26   48       1
    53   27   49       1
    54   28   50       1
    55   29   51       1
    56   30   52       1
    57   31   53       1
    58   31   54       1
    59   32   55       1
    60   33   56       1
@<TRIPOS>SUBSTRUCTURE
     1 UPG342      1 GROUP             4 B     UPG     0 **** UPG B 342
