@<TRIPOS>MOLECULE
4biz_ADP_1_ligand
   39    41     1     0     0
SMALL
NO_CHARGES


@<TRIPOS>ATOM
     1 PB          13.8060     4.2600    47.2010 P.3          1 ADP501   0.0000
     2 O1B         12.8010     3.2610    46.7070 O.co2        1 ADP501   0.0000
     3 O2B         13.9790     5.3880    46.1350 O.co2        1 ADP501  -1.0000
     4 O3B         13.3170     4.8250    48.5410 O.co2        1 ADP501  -1.0000
     5 PA          16.7140     3.9680    47.7520 P.3          1 ADP501   0.0000
     6 O1A         16.6590     5.3350    48.4400 O.co2        1 ADP501   0.0000
     7 O2A         17.5420     4.0510    46.5200 O.co2        1 ADP501  -1.0000
     8 O3A         15.2150     3.5220    47.4010 O.3          1 ADP501   0.0000
     9 O5'         17.3430     2.8780    48.7070 O.3          1 ADP501   0.0000
    10 C5'         17.4960     1.5150    48.2670 C.3          1 ADP501   0.0000
    11 C4'         17.1160     0.5770    49.3820 C.3          1 ADP501   0.0000
    12 O4'         18.1150     0.6510    50.4180 O.3          1 ADP501   0.0000
    13 C3'         15.8040     0.8700    50.1020 C.3          1 ADP501   0.0000
    14 O3'         14.6850     0.3230    49.4170 O.3          1 ADP501   0.0000
    15 C2'         16.0240     0.1800    51.4430 C.3          1 ADP501   0.0000
    16 O2'         15.8510    -1.2250    51.3100 O.3          1 ADP501   0.0000
    17 C1'         17.5170     0.4260    51.6840 C.3          1 ADP501   0.0000
    18 N9          17.8360     1.5370    52.5820 N.pl3        1 ADP501   0.0000
    19 C8          18.1890     2.8140    52.2410 C.2          1 ADP501   0.0000
    20 N7          18.4880     3.5840    53.2630 N.2          1 ADP501   0.0000
    21 C5          18.3130     2.7510    54.3530 C.ar         1 ADP501   0.0000
    22 C6          18.4990     2.9500    55.7450 C.ar         1 ADP501   0.0000
    23 N6          18.9210     4.1040    56.2810 N.pl3        1 ADP501   0.0000
    24 N1          18.2420     1.9070    56.5720 N.ar         1 ADP501   0.0000
    25 C2          17.8240     0.7520    56.0450 C.ar         1 ADP501   0.0000
    26 N3          17.6170     0.4470    54.7580 N.ar         1 ADP501   0.0000
    27 C4          17.8950     1.4900    53.9630 C.ar         1 ADP501   0.0000
    28 H5'1        18.4482     1.3543    48.0072 H            1 ADP501   0.0000
    29 H5'2        16.9032     1.3516    47.4784 H            1 ADP501   0.0000
    30 H4'         17.0881    -0.3566    49.0248 H            1 ADP501   0.0000
    31 H3'         15.6881     1.8549    50.2304 H            1 ADP501   0.0000
    32 H5          13.8483     0.5373    49.9210 H            1 ADP501   0.0000
    33 H2'         15.4532     0.5664    52.1675 H            1 ADP501   0.0000
    34 H7          16.4314    -1.6966    51.9739 H            1 ADP501   0.0000
    35 H1'         17.9110    -0.4082    52.0698 H            1 ADP501   0.0000
    36 H9          18.2171     3.1344    51.2941 H            1 ADP501   0.0000
    37 H10         19.0332     4.1837    57.2715 H            1 ADP501   0.0000
    38 H11         19.1236     4.8851    55.6904 H            1 ADP501   0.0000
    39 H12         17.6416     0.0180    56.6992 H            1 ADP501   0.0000
@<TRIPOS>BOND
     1    1    2      ar
     2    1    3      ar
     3    1    4      ar
     4    1    8       1
     5    5    6      ar
     6    5    7      ar
     7    5    8       1
     8    5    9       1
     9    9   10       1
    10   10   11       1
    11   11   12       1
    12   11   13       1
    13   12   17       1
    14   13   14       1
    15   13   15       1
    16   15   16       1
    17   15   17       1
    18   17   18       1
    19   18   19       1
    20   18   27       1
    21   19   20       2
    22   20   21       1
    23   21   22      ar
    24   21   27      ar
    25   22   23       1
    26   22   24      ar
    27   24   25      ar
    28   25   26      ar
    29   26   27      ar
    30   25   39       1
    31   23   38       1
    32   23   37       1
    33   10   28       1
    34   10   29       1
    35   11   30       1
    36   13   31       1
    37   14   32       1
    38   15   33       1
    39   16   34       1
    40   17   35       1
    41   19   36       1
@<TRIPOS>SUBSTRUCTURE
     1 ADP501      1 GROUP             4 A     ADP     0 **** ADP A 501
