@<TRIPOS>MOLECULE
1a9c_GTP_10_ligand
   45    47     1     0     0
SMALL
NO_CHARGES


@<TRIPOS>ATOM
     1 PG          75.0320    55.6740    95.3780 P.3          1 GTP410   0.0000
     2 O1G         74.7870    56.1960    93.9650 O.co2        1 GTP410   0.0000
     3 O2G         75.8620    56.4780    96.2970 O.co2        1 GTP410  -1.0000
     4 O3G         75.7600    54.2570    95.2500 O.co2        1 GTP410  -1.0000
     5 O3B         73.5800    55.2790    96.0570 O.3          1 GTP410   0.0000
     6 PB          72.2030    55.9770    95.6410 P.3          1 GTP410   0.0000
     7 O1B         72.5110    57.4160    95.6490 O.co2        1 GTP410   0.0000
     8 O2B         71.6560    55.4680    94.3780 O.co2        1 GTP410  -1.0000
     9 O3A         71.1890    55.6730    96.8000 O.3          1 GTP410   0.0000
    10 PA          71.1600    56.3080    98.3220 P.3          1 GTP410   0.0000
    11 O1A         71.9740    57.5700    98.3590 O.co2        1 GTP410   0.0000
    12 O2A         69.8520    56.1820    99.0130 O.co2        1 GTP410  -1.0000
    13 O5'         72.0810    55.3460    99.1480 O.3          1 GTP410   0.0000
    14 C5'         71.9700    53.9350    99.2700 C.3          1 GTP410   0.0000
    15 C4'         73.1190    53.6430   100.1930 C.3          1 GTP410   0.0000
    16 O4'         73.1710    52.3400   100.9220 O.3          1 GTP410   0.0000
    17 C3'         74.3170    53.6640    99.2910 C.3          1 GTP410   0.0000
    18 O3'         75.3660    54.4360    99.9030 O.3          1 GTP410   0.0000
    19 C2'         74.6080    52.1880    99.0440 C.3          1 GTP410   0.0000
    20 O2'         75.9220    51.8210    98.4890 O.3          1 GTP410   0.0000
    21 C1'         74.3680    51.7290   100.4730 C.3          1 GTP410   0.0000
    22 N9          74.2050    50.2940   100.6760 N.pl3        1 GTP410   0.0000
    23 C8          73.7890    49.3000    99.8620 C.2          1 GTP410   0.0000
    24 N7          73.7810    48.0830   100.3800 N.2          1 GTP410   1.0000
    25 C5          74.2460    48.3280   101.6680 C.2          1 GTP410   0.0000
    26 C6          74.4980    47.4460   102.7830 C.2          1 GTP410   0.0000
    27 O6          74.3610    46.2640   102.8800 O.2          1 GTP410   0.0000
    28 N1          74.9590    48.0870   103.8900 N.pl3        1 GTP410   0.0000
    29 C2          75.1690    49.4500   103.9720 C.2          1 GTP410   0.0000
    30 N2          75.6040    49.9510   105.1270 N.pl3        1 GTP410   0.0000
    31 N3          74.9510    50.2770   102.9390 N.2          1 GTP410   0.0000
    32 C4          74.4930    49.6620   101.8290 C.2          1 GTP410   0.0000
    33 H5'1        72.0818    53.4790    98.3870 H            1 GTP410   0.0000
    34 H5'2        71.0954    53.6680    99.6747 H            1 GTP410   0.0000
    35 H4'         73.1995    54.3879   100.8553 H            1 GTP410   0.0000
    36 H3'         74.0624    54.0933    98.4245 H            1 GTP410   0.0000
    37 H5          76.1644    54.4496    99.3011 H            1 GTP410   0.0000
    38 H2'         73.8915    51.8101    98.4576 H            1 GTP410   0.0000
    39 H7          76.2596    52.5647    97.9119 H            1 GTP410   0.0000
    40 H1'         75.1244    52.0492   101.0434 H            1 GTP410   0.0000
    41 H9          73.5029    49.4744    98.9198 H            1 GTP410   0.0000
    42 H10         75.1595    47.5347   104.6992 H            1 GTP410   0.0000
    43 H11         75.7651    50.9339   105.2166 H            1 GTP410   0.0000
    44 H12         75.7694    49.3443   105.9045 H            1 GTP410   0.0000
    45 H13         73.5122    47.2172    99.9580 H            1 GTP410   0.0000
@<TRIPOS>BOND
     1    1    2      ar
     2    1    3      ar
     3    1    4      ar
     4    1    5       1
     5    5    6       1
     6    6    7      ar
     7    6    8      ar
     8    6    9       1
     9    9   10       1
    10   10   11      ar
    11   10   12      ar
    12   10   13       1
    13   13   14       1
    14   14   15       1
    15   15   16       1
    16   15   17       1
    17   16   21       1
    18   17   18       1
    19   17   19       1
    20   19   20       1
    21   19   21       1
    22   21   22       1
    23   22   23       1
    24   22   32       1
    25   23   24       2
    26   24   25       1
    27   25   26       1
    28   25   32       2
    29   26   27       2
    30   26   28       1
    31   28   29       1
    32   29   30       1
    33   29   31       2
    34   31   32       1
    35   30   44       1
    36   30   43       1
    37   28   42       1
    38   23   41       1
    39   14   33       1
    40   14   34       1
    41   15   35       1
    42   17   36       1
    43   18   37       1
    44   19   38       1
    45   20   39       1
    46   21   40       1
    47   24   45       1
@<TRIPOS>SUBSTRUCTURE
     1 GTP410      1 GROUP             4 J     GTP     0 **** GTP J 410
