@<TRIPOS>MOLECULE
5kwv_ANP_2_ligand
   44    46     1     0     0
SMALL
NO_CHARGES


@<TRIPOS>ATOM
     1 PG          11.6010    97.3730    17.6630 P.3          1 ANP300   0.0000
     2 O1G         11.0540    96.5260    16.5550 O.co2        1 ANP300   0.0000
     3 O2G         10.7480    98.6940    17.7990 O.co2        1 ANP300  -1.0000
     4 O3G         13.1030    97.7570    17.3410 O.co2        1 ANP300  -1.0000
     5 PB          10.8630    94.9970    18.9170 P.3          1 ANP300   0.0000
     6 O1B         11.7380    94.1700    17.9310 O.co2        1 ANP300   0.0000
     7 O2B          9.4920    95.1180    18.3260 O.co2        1 ANP300  -1.0000
     8 N3B         11.5460    96.5170    19.1240 N.3          1 ANP300   0.0000
     9 PA          11.9520    94.4280    21.4310 P.3          1 ANP300   0.0000
    10 O1A         12.9310    95.4980    20.9370 O.co2        1 ANP300   0.0000
    11 O2A         11.3980    94.6730    22.7890 O.co2        1 ANP300  -1.0000
    12 O3A         10.7960    94.2850    20.3140 O.3          1 ANP300   0.0000
    13 O5'         12.6360    93.0080    21.5050 O.3          1 ANP300   0.0000
    14 C5'         13.3060    92.4710    20.3570 C.3          1 ANP300   0.0000
    15 C4'         12.6490    91.1720    19.9710 C.3          1 ANP300   0.0000
    16 O4'         11.4170    91.4340    19.2780 O.3          1 ANP300   0.0000
    17 C3'         13.4560    90.3160    19.0020 C.3          1 ANP300   0.0000
    18 O3'         14.3010    89.4100    19.7050 O.3          1 ANP300   0.0000
    19 C2'         12.3810    89.5410    18.2280 C.3          1 ANP300   0.0000
    20 O2'         12.3600    88.2170    18.7400 O.3          1 ANP300   0.0000
    21 C1'         11.0690    90.2620    18.5720 C.3          1 ANP300   0.0000
    22 N9          10.2410    90.6300    17.4180 N.pl3        1 ANP300   0.0000
    23 C8          10.0080    91.8960    16.9450 C.2          1 ANP300   0.0000
    24 N7           9.2180    91.9400    15.8990 N.2          1 ANP300   0.0000
    25 C5           8.9040    90.6070    15.6670 C.ar         1 ANP300   0.0000
    26 C6           8.0980    89.9760    14.6970 C.ar         1 ANP300   0.0000
    27 N6           7.4370    90.6300    13.7380 N.pl3        1 ANP300   0.0000
    28 N1           7.9930    88.6270    14.7490 N.ar         1 ANP300   0.0000
    29 C2           8.6530    87.9660    15.7030 C.ar         1 ANP300   0.0000
    30 N3           9.4390    88.4520    16.6680 N.ar         1 ANP300   0.0000
    31 C4           9.5240    89.7890    16.5960 C.ar         1 ANP300   0.0000
    32 H3B         12.4766    96.4107    19.4742 H            1 ANP300   0.0000
    33 H5'1        14.2682    92.3084    20.5756 H            1 ANP300   0.0000
    34 H5'2        13.2415    93.1183    19.5975 H            1 ANP300   0.0000
    35 H4'         12.4562    90.6421    20.7969 H            1 ANP300   0.0000
    36 H3'         13.9913    90.8913    18.3835 H            1 ANP300   0.0000
    37 H6          15.2548    89.5875    19.4627 H            1 ANP300   0.0000
    38 H2'         12.5583    89.5512    17.2439 H            1 ANP300   0.0000
    39 H8          13.0428    88.1292    19.4653 H            1 ANP300   0.0000
    40 H1'         10.5309    89.6740    19.1759 H            1 ANP300   0.0000
    41 H10         10.4056    92.7138    17.3611 H            1 ANP300   0.0000
    42 H11          6.8812    90.1232    13.0791 H            1 ANP300   0.0000
    43 H12          7.4980    91.6264    13.6790 H            1 ANP300   0.0000
    44 H13          8.5443    86.9720    15.6941 H            1 ANP300   0.0000
@<TRIPOS>BOND
     1    1    2      ar
     2    1    3      ar
     3    1    4      ar
     4    1    8       1
     5    5    6      ar
     6    5    7      ar
     7    5    8       1
     8    5   12       1
     9    9   10      ar
    10    9   11      ar
    11    9   12       1
    12    9   13       1
    13   13   14       1
    14   14   15       1
    15   15   16       1
    16   15   17       1
    17   16   21       1
    18   17   18       1
    19   17   19       1
    20   19   20       1
    21   19   21       1
    22   21   22       1
    23   22   23       1
    24   22   31       1
    25   23   24       2
    26   24   25       1
    27   25   26      ar
    28   25   31      ar
    29   26   27       1
    30   26   28      ar
    31   28   29      ar
    32   29   30      ar
    33   30   31      ar
    34   29   44       1
    35   27   43       1
    36   27   42       1
    37    8   32       1
    38   23   41       1
    39   14   33       1
    40   14   34       1
    41   15   35       1
    42   17   36       1
    43   18   37       1
    44   19   38       1
    45   20   39       1
    46   21   40       1
@<TRIPOS>SUBSTRUCTURE
     1 ANP300      1 GROUP             4 B     ANP     0 **** ANP B 300
