@<TRIPOS>MOLECULE
2rgo_FAD_1_ligand
   84    89     1     0     0
SMALL
NO_CHARGES


@<TRIPOS>ATOM
     1 PA          -7.6690   -31.6360   -26.9410 P.3          1 FAD1001   0.0000
     2 O1A         -7.4510   -30.9890   -25.6460 O.co2        1 FAD1001   0.0000
     3 O2A         -6.6740   -31.1420   -28.0150 O.co2        1 FAD1001  -1.0000
     4 O5B         -7.1110   -33.1620   -26.7660 O.3          1 FAD1001   0.0000
     5 C5B         -7.0870   -34.1530   -27.7750 C.3          1 FAD1001   0.0000
     6 C4B         -6.1870   -35.1600   -27.1230 C.3          1 FAD1001   0.0000
     7 O4B         -5.9870   -36.4370   -27.8120 O.3          1 FAD1001   0.0000
     8 C3B         -4.7900   -34.5470   -26.8710 C.3          1 FAD1001   0.0000
     9 O3B         -4.4150   -34.5010   -25.4560 O.3          1 FAD1001   0.0000
    10 C2B         -3.8560   -35.3880   -27.7960 C.3          1 FAD1001   0.0000
    11 O2B         -2.4650   -35.5040   -27.2910 O.3          1 FAD1001   0.0000
    12 C1B         -4.5810   -36.7050   -27.8570 C.3          1 FAD1001   0.0000
    13 N9A         -4.1930   -37.5880   -29.0010 N.pl3        1 FAD1001   0.0000
    14 C8A         -4.0290   -37.2640   -30.2840 C.2          1 FAD1001   0.0000
    15 N7A         -3.6570   -38.3320   -31.0200 N.2          1 FAD1001   0.0000
    16 C5A         -3.5880   -39.3270   -30.1690 C.ar         1 FAD1001   0.0000
    17 C6A         -3.2530   -40.6470   -30.2800 C.ar         1 FAD1001   0.0000
    18 N6A         -2.8900   -41.1370   -31.4670 N.pl3        1 FAD1001   0.0000
    19 N1A         -3.2640   -41.4970   -29.2090 N.ar         1 FAD1001   0.0000
    20 C2A         -3.6100   -41.0670   -27.9770 C.ar         1 FAD1001   0.0000
    21 N3A         -3.9400   -39.7650   -27.8100 N.ar         1 FAD1001   0.0000
    22 C4A         -3.9350   -38.9040   -28.8580 C.ar         1 FAD1001   0.0000
    23 N1         -13.5870   -22.6350   -26.5100 N.2          1 FAD1001   0.0000
    24 C2         -14.5920   -21.9440   -25.8770 C.2          1 FAD1001   0.0000
    25 O2         -15.5410   -22.5130   -25.3440 O.2          1 FAD1001   0.0000
    26 N3         -14.5530   -20.5520   -25.8180 N.pl3        1 FAD1001   0.0000
    27 C4         -13.5120   -19.8340   -26.4010 C.2          1 FAD1001   0.0000
    28 O4         -13.4990   -18.5800   -26.2310 O.2          1 FAD1001   0.0000
    29 C4X        -12.4490   -20.5300   -27.0580 C.2          1 FAD1001   0.0000
    30 N5         -11.4140   -19.8640   -27.6450 N.2          1 FAD1001   0.0000
    31 C5X        -10.2420   -20.4940   -28.0550 C.ar         1 FAD1001   0.0000
    32 C6          -9.0880   -19.7020   -28.3990 C.ar         1 FAD1001   0.0000
    33 C7          -7.8720   -20.3420   -28.8200 C.ar         1 FAD1001   0.0000
    34 C7M         -6.6350   -19.4720   -29.1880 C.3          1 FAD1001   0.0000
    35 C8          -7.8390   -21.7680   -28.8900 C.ar         1 FAD1001   0.0000
    36 C8M         -6.5620   -22.5000   -29.3140 C.3          1 FAD1001   0.0000
    37 C9          -8.9740   -22.5330   -28.5690 C.ar         1 FAD1001   0.0000
    38 C9A        -10.2180   -21.9100   -28.1310 C.ar         1 FAD1001   0.0000
    39 N10        -11.4430   -22.6610   -27.8230 N.pl3        1 FAD1001   0.0000
    40 C10        -12.5040   -21.9820   -27.1090 C.2          1 FAD1001   0.0000
    41 C1'        -11.4660   -24.1330   -27.9490 C.3          1 FAD1001   0.0000
    42 C2'        -11.2820   -25.1070   -26.8060 C.3          1 FAD1001   0.0000
    43 O2'        -10.0440   -24.7900   -26.1560 O.3          1 FAD1001   0.0000
    44 C3'        -11.1730   -26.5010   -27.3950 C.3          1 FAD1001   0.0000
    45 O3'        -12.4030   -26.7750   -28.1230 O.3          1 FAD1001   0.0000
    46 C4'        -11.1160   -27.6810   -26.3730 C.3          1 FAD1001   0.0000
    47 O4'         -9.9990   -27.5170   -25.5340 O.3          1 FAD1001   0.0000
    48 C5'        -10.9390   -28.9130   -27.1940 C.3          1 FAD1001   0.0000
    49 O5'        -11.1910   -30.1610   -26.5950 O.3          1 FAD1001   0.0000
    50 P          -10.6390   -31.4930   -27.2420 P.3          1 FAD1001   0.0000
    51 O1P        -11.4930   -31.8300   -28.3840 O.co2        1 FAD1001   0.0000
    52 O2P        -10.4600   -32.2670   -26.0540 O.co2        1 FAD1001  -1.0000
    53 O3P         -9.0540   -31.6220   -27.6040 O.3          1 FAD1001   0.0000
    54 H5B1        -6.6991   -33.8052   -28.6286 H            1 FAD1001   0.0000
    55 H5B2        -7.9977   -34.5269   -27.9507 H            1 FAD1001   0.0000
    56 H4B         -6.5810   -35.3687   -26.2279 H            1 FAD1001   0.0000
    57 H3B         -4.7998   -33.6086   -27.2165 H            1 FAD1001   0.0000
    58 H5          -4.4049   -35.4290   -25.0835 H            1 FAD1001   0.0000
    59 H2B         -3.8414   -34.9783   -28.7081 H            1 FAD1001   0.0000
    60 H7          -2.4718   -35.9455   -26.3938 H            1 FAD1001   0.0000
    61 H1B         -4.3534   -37.2002   -27.0186 H            1 FAD1001   0.0000
    62 H8A         -4.1646   -36.3450   -30.6542 H            1 FAD1001   0.0000
    63 H6A1        -2.6436   -42.1021   -31.5554 H            1 FAD1001   0.0000
    64 H6A2        -2.8644   -40.5391   -32.2681 H            1 FAD1001   0.0000
    65 H2A         -3.6223   -41.6988   -27.2020 H            1 FAD1001   0.0000
    66 H13        -15.2860   -20.0599   -25.3484 H            1 FAD1001   0.0000
    67 H14         -9.1335   -18.7045   -28.3446 H            1 FAD1001   0.0000
    68 H7M1        -5.8777   -20.0666   -29.4580 H            1 FAD1001   0.0000
    69 H7M2        -6.8687   -18.8645   -29.9471 H            1 FAD1001   0.0000
    70 H7M3        -6.3638   -18.9259   -28.3954 H            1 FAD1001   0.0000
    71 H8M1        -6.7248   -23.4866   -29.3053 H            1 FAD1001   0.0000
    72 H8M2        -6.3039   -22.2129   -30.2365 H            1 FAD1001   0.0000
    73 H8M3        -5.8236   -22.2783   -28.6771 H            1 FAD1001   0.0000
    74 H21         -8.9273   -23.5292   -28.6428 H            1 FAD1001   0.0000
    75 H1'1       -10.7460   -24.3551   -28.6064 H            1 FAD1001   0.0000
    76 H1'2       -12.3578   -24.3523   -28.3446 H            1 FAD1001   0.0000
    77 H2'        -12.0462   -25.0506   -26.1635 H            1 FAD1001   0.0000
    78 H25         -9.6507   -25.6218   -25.7642 H            1 FAD1001   0.0000
    79 H3'        -10.3907   -26.5491   -28.0160 H            1 FAD1001   0.0000
    80 H27        -12.1893   -26.9519   -29.0838 H            1 FAD1001   0.0000
    81 H4'        -11.9591   -27.7286   -25.8374 H            1 FAD1001   0.0000
    82 H29         -9.9606   -28.2715   -24.8788 H            1 FAD1001   0.0000
    83 H5'1        -9.9903   -28.9234   -27.5099 H            1 FAD1001   0.0000
    84 H5'2       -11.5514   -28.8341   -27.9806 H            1 FAD1001   0.0000
@<TRIPOS>BOND
     1    1    2      ar
     2    1    3      ar
     3    1    4       1
     4    1   53       1
     5    4    5       1
     6    5    6       1
     7    6    7       1
     8    6    8       1
     9    7   12       1
    10    8    9       1
    11    8   10       1
    12   10   11       1
    13   10   12       1
    14   12   13       1
    15   13   14       1
    16   13   22       1
    17   14   15       2
    18   15   16       1
    19   16   17      ar
    20   16   22      ar
    21   17   18       1
    22   17   19      ar
    23   19   20      ar
    24   20   21      ar
    25   21   22      ar
    26   23   24       1
    27   23   40       2
    28   24   25       2
    29   24   26       1
    30   26   27       1
    31   27   28       2
    32   27   29       1
    33   29   30       2
    34   29   40       1
    35   30   31       1
    36   31   32      ar
    37   31   38      ar
    38   32   33      ar
    39   33   34       1
    40   33   35      ar
    41   35   36       1
    42   35   37      ar
    43   37   38      ar
    44   38   39       1
    45   39   40       1
    46   39   41       1
    47   41   42       1
    48   42   43       1
    49   42   44       1
    50   44   45       1
    51   44   46       1
    52   46   47       1
    53   46   48       1
    54   48   49       1
    55   49   50       1
    56   50   51      ar
    57   50   52      ar
    58   50   53       1
    59   48   84       1
    60    5   54       1
    61    5   55       1
    62    6   56       1
    63    8   57       1
    64    9   58       1
    65   10   59       1
    66   11   60       1
    67   12   61       1
    68   14   62       1
    69   18   63       1
    70   18   64       1
    71   20   65       1
    72   26   66       1
    73   32   67       1
    74   34   68       1
    75   34   69       1
    76   34   70       1
    77   36   71       1
    78   36   72       1
    79   36   73       1
    80   37   74       1
    81   41   75       1
    82   41   76       1
    83   42   77       1
    84   43   78       1
    85   44   79       1
    86   45   80       1
    87   46   81       1
    88   47   82       1
    89   48   83       1
@<TRIPOS>SUBSTRUCTURE
     1 FAD1001     1 GROUP             4 A     FAD     0 **** FAD A1001
