@<TRIPOS>MOLECULE
2b0q_ADP_1_ligand
   39    41     1     0     0
SMALL
NO_CHARGES


@<TRIPOS>ATOM
     1 PB          62.2580     8.2710  -272.9910 P.3          1 ADP300   0.0000
     2 O1B         61.8610     7.4630  -274.1700 O.co2        1 ADP300   0.0000
     3 O2B         61.2780     8.5120  -271.9330 O.co2        1 ADP300  -1.0000
     4 O3B         62.8230     9.6950  -273.4880 O.co2        1 ADP300  -1.0000
     5 PA          64.9870     7.4460  -272.9770 P.3          1 ADP300   0.0000
     6 O1A         65.1340     6.1080  -273.5610 O.co2        1 ADP300   0.0000
     7 O2A         65.2120     8.6440  -273.8030 O.co2        1 ADP300  -1.0000
     8 O3A         63.5310     7.5710  -272.3180 O.3          1 ADP300   0.0000
     9 O5'         65.9330     7.5210  -271.6890 O.3          1 ADP300   0.0000
    10 C5'         65.7120     8.5190  -270.6880 C.3          1 ADP300   0.0000
    11 C4'         67.0080     9.2480  -270.3610 C.3          1 ADP300   0.0000
    12 O4'         67.8750     8.4190  -269.5670 O.3          1 ADP300   0.0000
    13 C3'         67.8610     9.6060  -271.5820 C.3          1 ADP300   0.0000
    14 O3'         67.6130    10.9670  -271.9380 O.3          1 ADP300   0.0000
    15 C2'         69.2720     9.4790  -270.9960 C.3          1 ADP300   0.0000
    16 O2'         69.5480    10.6370  -270.2000 O.3          1 ADP300   0.0000
    17 C1'         69.2020     8.2770  -270.0620 C.3          1 ADP300   0.0000
    18 N9          69.5170     6.9710  -270.7050 N.pl3        1 ADP300   0.0000
    19 C8          68.6670     5.9780  -271.1510 C.2          1 ADP300   0.0000
    20 N7          69.2700     4.9430  -271.6720 N.2          1 ADP300   0.0000
    21 C5          70.6110     5.2640  -271.5650 C.ar         1 ADP300   0.0000
    22 C6          71.8100     4.5840  -271.9300 C.ar         1 ADP300   0.0000
    23 N6          71.8210     3.3890  -272.4990 N.pl3        1 ADP300   0.0000
    24 N1          72.9940     5.2000  -271.6750 N.ar         1 ADP300   0.0000
    25 C2          73.0060     6.4140  -271.0990 C.ar         1 ADP300   0.0000
    26 N3          71.9580     7.1470  -270.7140 N.ar         1 ADP300   0.0000
    27 C4          70.7750     6.5010  -270.9800 C.ar         1 ADP300   0.0000
    28 H5'1        65.3632     8.0814  -269.8592 H            1 ADP300   0.0000
    29 H5'2        65.0400     9.1787  -271.0246 H            1 ADP300   0.0000
    30 H4'         66.7959    10.0826  -269.8527 H            1 ADP300   0.0000
    31 H3'         67.7101     8.9800  -272.3471 H            1 ADP300   0.0000
    32 H5          68.1664    11.2092  -272.7349 H            1 ADP300   0.0000
    33 H2'         69.9587     9.3508  -271.7116 H            1 ADP300   0.0000
    34 H7          69.0488    11.4213  -270.5683 H            1 ADP300   0.0000
    35 H1'         69.8411     8.4227  -269.3068 H            1 ADP300   0.0000
    36 H9          67.6718     6.0458  -271.0808 H            1 ADP300   0.0000
    37 H10         72.6907     2.9557  -272.7352 H            1 ADP300   0.0000
    38 H11         70.9596     2.9195  -272.6926 H            1 ADP300   0.0000
    39 H12         73.9073     6.8167  -270.9396 H            1 ADP300   0.0000
@<TRIPOS>BOND
     1    1    2      ar
     2    1    3      ar
     3    1    4      ar
     4    1    8       1
     5    5    6      ar
     6    5    7      ar
     7    5    8       1
     8    5    9       1
     9    9   10       1
    10   10   11       1
    11   11   12       1
    12   11   13       1
    13   12   17       1
    14   13   14       1
    15   13   15       1
    16   15   16       1
    17   15   17       1
    18   17   18       1
    19   18   19       1
    20   18   27       1
    21   19   20       2
    22   20   21       1
    23   21   22      ar
    24   21   27      ar
    25   22   23       1
    26   22   24      ar
    27   24   25      ar
    28   25   26      ar
    29   26   27      ar
    30   25   39       1
    31   23   38       1
    32   23   37       1
    33   10   28       1
    34   10   29       1
    35   11   30       1
    36   13   31       1
    37   14   32       1
    38   15   33       1
    39   16   34       1
    40   17   35       1
    41   19   36       1
@<TRIPOS>SUBSTRUCTURE
     1 ADP300      1 GROUP             4 A     ADP     0 **** ADP A 300
