@<TRIPOS>MOLECULE
3e4v_FMN_1_ligand
   50    52     1     0     0
SMALL
NO_CHARGES


@<TRIPOS>ATOM
     1 N1          30.9000    61.3790     9.7880 N.2          1 FMN300   0.0000
     2 C2          30.3110    60.2740     9.2420 C.2          1 FMN300   0.0000
     3 O2          30.2060    59.2060     9.8850 O.2          1 FMN300   0.0000
     4 N3          29.7870    60.3160     7.9600 N.pl3        1 FMN300   0.0000
     5 C4          29.8440    61.4320     7.1680 C.2          1 FMN300   0.0000
     6 O4          29.3080    61.4130     6.0170 O.2          1 FMN300   0.0000
     7 C4A         30.4490    62.5860     7.7120 C.2          1 FMN300   0.0000
     8 N5          30.5130    63.7770     6.9900 N.2          1 FMN300   0.0000
     9 C5A         31.0000    64.9200     7.6290 C.ar         1 FMN300   0.0000
    10 C6          30.9870    66.1430     6.9620 C.ar         1 FMN300   0.0000
    11 C7          31.5230    67.3020     7.5430 C.ar         1 FMN300   0.0000
    12 C7M         31.3740    68.6390     6.8320 C.3          1 FMN300   0.0000
    13 C8          31.9950    67.2280     8.8770 C.ar         1 FMN300   0.0000
    14 C8M         32.3960    68.4930     9.5910 C.3          1 FMN300   0.0000
    15 C9          31.9680    66.0190     9.5620 C.ar         1 FMN300   0.0000
    16 C9A         31.4790    64.8690     8.9500 C.ar         1 FMN300   0.0000
    17 N10         31.4920    63.6430     9.6360 N.pl3        1 FMN300   0.0000
    18 C10         30.9060    62.5490     9.0630 C.2          1 FMN300   0.0000
    19 C1'         32.1270    63.4280    10.9670 C.3          1 FMN300   0.0000
    20 C2'         31.1020    63.5190    12.1100 C.3          1 FMN300   0.0000
    21 O2'         30.2170    64.5900    11.9280 O.3          1 FMN300   0.0000
    22 C3'         31.9310    63.7400    13.3890 C.3          1 FMN300   0.0000
    23 O3'         32.7330    62.5990    13.6600 O.3          1 FMN300   0.0000
    24 C4'         31.1230    64.1320    14.6120 C.3          1 FMN300   0.0000
    25 O4'         32.0270    64.6570    15.5930 O.3          1 FMN300   0.0000
    26 C5'         30.3760    62.9510    15.2330 C.3          1 FMN300   0.0000
    27 O5'         29.5810    63.4340    16.3100 O.3          1 FMN300   0.0000
    28 P           29.1160    62.3740    17.4600 P.3          1 FMN300   0.0000
    29 O1P         28.4280    63.2360    18.4700 O.co2        1 FMN300   0.0000
    30 O2P         28.2020    61.3620    16.8310 O.co2        1 FMN300  -1.0000
    31 O3P         30.3630    61.7050    18.0200 O.co2        1 FMN300  -1.0000
    32 H1          29.3474    59.4946     7.5967 H            1 FMN300   0.0000
    33 H2          30.5861    66.1960     6.0474 H            1 FMN300   0.0000
    34 H7M1        31.8085    69.3564     7.3766 H            1 FMN300   0.0000
    35 H7M2        31.8125    68.5900     5.9346 H            1 FMN300   0.0000
    36 H7M3        30.4031    68.8493     6.7176 H            1 FMN300   0.0000
    37 H8M1        32.7038    68.2704    10.5160 H            1 FMN300   0.0000
    38 H8M2        33.1390    68.9372     9.0903 H            1 FMN300   0.0000
    39 H8M3        31.6113    69.1109     9.6405 H            1 FMN300   0.0000
    40 H9          32.3030    65.9752    10.5032 H            1 FMN300   0.0000
    41 H1'1        32.8302    64.1251    11.1066 H            1 FMN300   0.0000
    42 H1'2        32.5488    62.5214    10.9818 H            1 FMN300   0.0000
    43 H2'         30.5909    62.6622    12.1787 H            1 FMN300   0.0000
    44 H13         29.7202    64.4696    11.0685 H            1 FMN300   0.0000
    45 H3'         32.5575    64.4964    13.2011 H            1 FMN300   0.0000
    46 H15         32.1446    61.8004    13.7863 H            1 FMN300   0.0000
    47 H4'         30.4649    64.8409    14.3582 H            1 FMN300   0.0000
    48 H17         31.5149    64.9226    16.4099 H            1 FMN300   0.0000
    49 H5'1        31.0327    62.2784    15.5740 H            1 FMN300   0.0000
    50 H5'2        29.7886    62.5244    14.5453 H            1 FMN300   0.0000
@<TRIPOS>BOND
     1    1    2       1
     2    1   18       2
     3    2    3       2
     4    2    4       1
     5    4    5       1
     6    5    6       2
     7    5    7       1
     8    7    8       2
     9    7   18       1
    10    8    9       1
    11    9   10      ar
    12    9   16      ar
    13   10   11      ar
    14   11   12       1
    15   11   13      ar
    16   13   14       1
    17   13   15      ar
    18   15   16      ar
    19   16   17       1
    20   17   18       1
    21   17   19       1
    22   19   20       1
    23   20   21       1
    24   20   22       1
    25   22   23       1
    26   22   24       1
    27   24   25       1
    28   24   26       1
    29   26   27       1
    30   27   28       1
    31   28   29      ar
    32   28   30      ar
    33   28   31      ar
    34    4   32       1
    35   10   33       1
    36   12   34       1
    37   12   35       1
    38   12   36       1
    39   14   37       1
    40   14   38       1
    41   14   39       1
    42   15   40       1
    43   19   41       1
    44   19   42       1
    45   20   43       1
    46   21   44       1
    47   22   45       1
    48   23   46       1
    49   24   47       1
    50   25   48       1
    51   26   49       1
    52   26   50       1
@<TRIPOS>SUBSTRUCTURE
     1 FMN300      1 GROUP             4 A     FMN     0 **** FMN A 300
