@<TRIPOS>MOLECULE
4paa_THG_1_ligand
   53    55     1     0     0
SMALL
NO_CHARGES


@<TRIPOS>ATOM
     1 N3         -35.6390    -5.0730    41.8530 N.pl3        1 THG902   0.0000
     2 C2         -36.1670    -5.6520    42.9500 C.2          1 THG902   0.0000
     3 N1         -35.7550    -5.3500    44.2230 N.2          1 THG902   0.0000
     4 C8A        -34.7800    -4.4460    44.4580 C.2          1 THG902   0.0000
     5 C4A        -34.1880    -3.7990    43.2820 C.2          1 THG902   0.0000
     6 C4         -34.6670    -4.1570    41.9480 C.2          1 THG902   0.0000
     7 N8         -34.3680    -4.0910    45.6950 N.pl3        1 THG902   0.0000
     8 C7         -33.4910    -2.9360    45.9120 C.3          1 THG902   0.0000
     9 C6         -32.8690    -2.2970    44.6500 C.3          1 THG902   0.0000
    10 N5         -33.2430    -2.8740    43.3860 N.pl3        1 THG902   0.0000
    11 C9         -33.1610    -0.8090    44.3860 C.3          1 THG902   0.0000
    12 N10        -34.3680    -0.1090    44.7990 N.pl3        1 THG902   0.0000
    13 C4'        -35.4850     0.1230    44.0480 C.ar         1 THG902   0.0000
    14 C3'        -35.9780    -0.6710    43.0060 C.ar         1 THG902   0.0000
    15 C2'        -37.0790    -0.2440    42.2460 C.ar         1 THG902   0.0000
    16 C1'        -37.7020     0.9850    42.4890 C.ar         1 THG902   0.0000
    17 C6'        -37.1860     1.7760    43.5040 C.ar         1 THG902   0.0000
    18 C5'        -36.1010     1.3550    44.2580 C.ar         1 THG902   0.0000
    19 C11        -38.8960     1.4500    41.6790 C.2          1 THG902   0.0000
    20 N          -39.4620     2.6590    41.9000 N.am         1 THG902   0.0000
    21 CA         -40.6730     3.1260    41.2080 C.3          1 THG902   0.0000
    22 C          -40.8060     4.6310    41.1690 C.2          1 THG902   0.0000
    23 OX2        -40.3230     5.3260    42.0820 O.co2        1 THG902   0.0000
    24 OX1        -41.4230     5.1440    40.2110 O.co2        1 THG902  -1.0000
    25 CB         -41.9620     2.5520    41.8160 C.3          1 THG902   0.0000
    26 CG         -42.2100     2.9870    43.2630 C.3          1 THG902   0.0000
    27 CD         -43.6730     2.8670    43.6410 C.2          1 THG902   0.0000
    28 OE1        -44.0240     1.9200    44.3770 O.co2        1 THG902   0.0000
    29 OE2        -44.4830     3.7260    43.2240 O.co2        1 THG902  -1.0000
    30 O11        -39.3490     0.6910    40.8310 O.2          1 THG902   0.0000
    31 O4         -34.1430    -3.6020    40.9550 O.2          1 THG902   0.0000
    32 N2         -37.1430    -6.5700    42.7730 N.pl3        1 THG902   0.0000
    33 H1         -35.9803    -5.3330    40.9497 H            1 THG902   0.0000
    34 H2         -34.6687    -4.6294    46.4822 H            1 THG902   0.0000
    35 H3         -32.7413    -3.2307    46.5045 H            1 THG902   0.0000
    36 H4         -34.0263    -2.2311    46.3773 H            1 THG902   0.0000
    37 H5         -31.8768    -2.3907    44.7328 H            1 THG902   0.0000
    38 H6         -32.7744    -2.5671    42.5576 H            1 THG902   0.0000
    39 H7         -33.1167    -0.7008    43.3929 H            1 THG902   0.0000
    40 H8         -32.4052    -0.3098    44.8097 H            1 THG902   0.0000
    41 H9         -34.3811     0.2407    45.7358 H            1 THG902   0.0000
    42 H3'        -35.5434    -1.5481    42.8014 H            1 THG902   0.0000
    43 H2'        -37.4255    -0.8315    41.5147 H            1 THG902   0.0000
    44 H6'        -37.6030     2.6645    43.6955 H            1 THG902   0.0000
    45 H5'        -35.7491     1.9554    44.9761 H            1 THG902   0.0000
    46 H14        -39.0345     3.2670    42.5690 H            1 THG902   0.0000
    47 HA         -40.6197     2.8056    40.2622 H            1 THG902   0.0000
    48 HB1        -41.9045     1.5539    41.7923 H            1 THG902   0.0000
    49 HB2        -42.7353     2.8547    41.2589 H            1 THG902   0.0000
    50 HG1        -41.9250     3.9397    43.3685 H            1 THG902   0.0000
    51 HG2        -41.6691     2.4078    43.8729 H            1 THG902   0.0000
    52 H20        -37.5567    -7.0190    43.5650 H            1 THG902   0.0000
    53 H21        -37.4514    -6.8002    41.8500 H            1 THG902   0.0000
@<TRIPOS>BOND
     1    1    2       1
     2    1    6       1
     3    2    3       2
     4    2   32       1
     5    3    4       1
     6    4    5       2
     7    4    7       1
     8    5    6       1
     9    5   10       1
    10    6   31       2
    11    7    8       1
    12    8    9       1
    13    9   10       1
    14    9   11       1
    15   11   12       1
    16   12   13       1
    17   13   14      ar
    18   13   18      ar
    19   14   15      ar
    20   15   16      ar
    21   16   17      ar
    22   16   19       1
    23   17   18      ar
    24   19   20      am
    25   19   30       2
    26   20   21       1
    27   21   22       1
    28   21   25       1
    29   22   23      ar
    30   22   24      ar
    31   25   26       1
    32   26   27       1
    33   27   28      ar
    34   27   29      ar
    35    1   33       1
    36    7   34       1
    37    8   35       1
    38    8   36       1
    39    9   37       1
    40   10   38       1
    41   11   39       1
    42   11   40       1
    43   12   41       1
    44   14   42       1
    45   15   43       1
    46   17   44       1
    47   18   45       1
    48   20   46       1
    49   21   47       1
    50   32   53       1
    51   25   48       1
    52   25   49       1
    53   26   50       1
    54   26   51       1
    55   32   52       1
@<TRIPOS>SUBSTRUCTURE
     1 THG902      1 GROUP             4 A     THG     0 **** THG A 902
