@<TRIPOS>MOLECULE
1lev_CLI_2_ligand
   26    27     1     0     0
SMALL
NO_CHARGES


@<TRIPOS>ATOM
     1 O19          9.2380    32.2280    10.9990 O.co2        1 CLI339   0.0000
     2 C16          8.1680    32.3220    10.4280 C.2          1 CLI339   0.0000
     3 O18          7.4550    33.4220    10.5350 O.co2        1 CLI339  -1.0000
     4 C12          7.6000    31.1680     9.6350 C.3          1 CLI339   0.0000
     5 C6           7.0260    30.2130    10.6910 C.3          1 CLI339   0.0000
     6 C2           5.8110    29.4520    10.2250 C.2          1 CLI339   0.0000
     7 C1           5.5060    28.0630    10.6340 C.ar         1 CLI339   0.0000
     8 C5           4.8360    29.8330     9.4070 C.2          1 CLI339   0.0000
     9 C11          4.7130    31.1260     8.7390 C.2          1 CLI339   0.0000
    10 O14          5.4150    32.1580     9.0930 O.co2        1 CLI339   0.0000
    11 O15          3.9530    31.2240     7.8190 O.co2        1 CLI339  -1.0000
    12 N7           3.9500    28.8380     9.2130 N.pl3        1 CLI339   0.0000
    13 C3           4.3300    27.7290     9.9760 C.ar         1 CLI339   0.0000
    14 C8           3.8060    26.4600    10.1670 C.ar         1 CLI339   0.0000
    15 C13          4.4590    25.5550    11.0130 C.ar         1 CLI339   0.0000
    16 CL17         3.8300    23.9800    11.2710 Cl           1 CLI339   0.0000
    17 C9           5.6360    25.8610    11.6720 C.ar         1 CLI339   0.0000
    18 C4           6.1350    27.1310    11.4630 C.ar         1 CLI339   0.0000
    19 CL10         7.6000    27.4980    12.2560 Cl           1 CLI339   0.0000
    20 H1           8.3183    30.7170     9.1052 H            1 CLI339   0.0000
    21 H2           6.8798    31.4850     9.0179 H            1 CLI339   0.0000
    22 H3           6.7729    30.7487    11.4966 H            1 CLI339   0.0000
    23 H4           7.7356    29.5534    10.9388 H            1 CLI339   0.0000
    24 H5           3.1477    28.8844     8.6179 H            1 CLI339   0.0000
    25 H6           2.9629    26.1911     9.7013 H            1 CLI339   0.0000
    26 H7           6.0981    25.2013    12.2647 H            1 CLI339   0.0000
@<TRIPOS>BOND
     1    1    2      ar
     2    2    3      ar
     3    2    4       1
     4    4    5       1
     5    5    6       1
     6    6    7       1
     7    6    8       2
     8    7   13      ar
     9    7   18      ar
    10    8    9       1
    11    8   12       1
    12    9   10      ar
    13    9   11      ar
    14   12   13       1
    15   13   14      ar
    16   14   15      ar
    17   15   16       1
    18   15   17      ar
    19   17   18      ar
    20   18   19       1
    21   17   26       1
    22    4   20       1
    23    4   21       1
    24    5   22       1
    25    5   23       1
    26   14   25       1
    27   12   24       1
@<TRIPOS>SUBSTRUCTURE
     1 CLI339      1 GROUP             4 F     CLI     0 **** CLI F 339
