@<TRIPOS>MOLECULE
2kug_HLT_1_ligand
    8     7     1     0     0
SMALL
NO_CHARGES


@<TRIPOS>ATOM
     1 F1          39.6600     0.8970     5.5120 F            1 HLT149   0.0000
     2 C2          39.3640     0.2010     4.3680 C.3          1 HLT149   0.0000
     3 F2          40.4900     0.0930     3.5930 F            1 HLT149   0.0000
     4 F3          38.9150    -1.0520     4.6990 F            1 HLT149   0.0000
     5 C1          38.2770     0.9410     3.5880 C.3          1 HLT149   0.0000
     6 BR          38.8470     2.5730     3.1530 Br           1 HLT149   0.0000
     7 CL          37.8590     0.0290     2.1140 Cl           1 HLT149   0.0000
     8 H1          37.4625     1.0228     4.1623 H            1 HLT149   0.0000
@<TRIPOS>BOND
     1    1    2       1
     2    2    3       1
     3    2    4       1
     4    2    5       1
     5    5    6       1
     6    5    7       1
     7    5    8       1
@<TRIPOS>SUBSTRUCTURE
     1 HLT149      1 GROUP             4 A     HLT     0 **** HLT A 149
