@<TRIPOS>MOLECULE
1uym_PU3_1_ligand
   52    54     1     0     0
SMALL
NO_CHARGES


@<TRIPOS>ATOM
     1 C19          8.4640    10.0760    22.9460 C.3          1 PU31224   0.0000
     2 O3           8.3440    11.2560    23.7340 O.3          1 PU31224   0.0000
     3 C5           6.9910    11.6300    24.0410 C.ar         1 PU31224   0.0000
     4 C6           5.7600    11.0910    23.3580 C.ar         1 PU31224   0.0000
     5 C4           6.7610    12.9230    24.7240 C.ar         1 PU31224   0.0000
     6 O1           7.8080    13.5830    25.4380 O.3          1 PU31224   0.0000
     7 C7           8.3080    14.6680    24.6630 C.3          1 PU31224   0.0000
     8 C3           5.3520    13.3220    25.0060 C.ar         1 PU31224   0.0000
     9 O2           5.2000    14.5000    25.8540 O.3          1 PU31224   0.0000
    10 C8           4.4290    15.6400    25.5330 C.3          1 PU31224   0.0000
    11 C2           4.3980    12.6900    24.4120 C.ar         1 PU31224   0.0000
    12 C1           4.5540    11.6470    23.6670 C.ar         1 PU31224   0.0000
    13 C9           3.3500    10.9700    23.0240 C.3          1 PU31224   0.0000
    14 C10          2.1830    10.7420    23.9560 C.2          1 PU31224   0.0000
    15 N1           0.9210    11.2490    23.7430 N.2          1 PU31224   0.0000
    16 C11          0.1450    10.8330    24.7520 C.ar         1 PU31224   0.0000
    17 C13         -1.2660    11.0070    25.1640 C.ar         1 PU31224   0.0000
    18 N5          -2.1020    11.7400    24.4230 N.pl3        1 PU31224   0.0000
    19 C12          1.0160    10.0430    25.5830 C.ar         1 PU31224   0.0000
    20 N4           0.5640     9.4680    26.7350 N.ar         1 PU31224   0.0000
    21 C14         -0.8260     9.6280    27.1630 C.ar         1 PU31224   0.0000
    22 N3          -1.6180    10.4520    26.2380 N.ar         1 PU31224   0.0000
    23 N2           2.2420     9.9970    25.0830 N.pl3        1 PU31224   0.0000
    24 C15          3.3880     9.2670    25.6110 C.3          1 PU31224   0.0000
    25 C16          3.2360     7.8460    25.0520 C.3          1 PU31224   0.0000
    26 C17          4.5380     7.0580    24.9490 C.3          1 PU31224   0.0000
    27 C18          5.2630     7.3030    23.6400 C.3          1 PU31224   0.0000
    28 H1           9.4309     9.8849    22.7771 H            1 PU31224   0.0000
    29 H2           8.0523     9.3062    23.4337 H            1 PU31224   0.0000
    30 H3           7.9931    10.2083    22.0738 H            1 PU31224   0.0000
    31 H4           5.8262    10.3449    22.6954 H            1 PU31224   0.0000
    32 H5           9.0403    15.1272    25.1659 H            1 PU31224   0.0000
    33 H6           8.6657    14.3213    23.7959 H            1 PU31224   0.0000
    34 H7           7.5692    15.3174    24.4830 H            1 PU31224   0.0000
    35 H8           4.4894    16.3040    26.2783 H            1 PU31224   0.0000
    36 H9           4.7773    16.0516    24.6908 H            1 PU31224   0.0000
    37 H10          3.4747    15.3711    25.4027 H            1 PU31224   0.0000
    38 H11          3.4673    13.0334    24.5377 H            1 PU31224   0.0000
    39 H12          3.6440    10.0823    22.6697 H            1 PU31224   0.0000
    40 H13          3.0370    11.5439    22.2673 H            1 PU31224   0.0000
    41 H14         -3.0540    11.8532    24.7075 H            1 PU31224   0.0000
    42 H15         -1.7757    12.1754    23.5840 H            1 PU31224   0.0000
    43 H16         -1.1981     9.2200    27.9967 H            1 PU31224   0.0000
    44 H17          3.3693     9.2565    26.6108 H            1 PU31224   0.0000
    45 H18          4.2435     9.6794    25.2980 H            1 PU31224   0.0000
    46 H19          2.8390     7.9124    24.1366 H            1 PU31224   0.0000
    47 H20          2.6131     7.3413    25.6497 H            1 PU31224   0.0000
    48 H21          4.3293     6.0828    25.0223 H            1 PU31224   0.0000
    49 H22          5.1369     7.3283    25.7028 H            1 PU31224   0.0000
    50 H23          6.1067     6.7665    23.6207 H            1 PU31224   0.0000
    51 H24          4.6764     7.0293    22.8778 H            1 PU31224   0.0000
    52 H25          5.4841     8.2748    23.5582 H            1 PU31224   0.0000
@<TRIPOS>BOND
     1    1    2       1
     2    2    3       1
     3    3    4      ar
     4    3    5      ar
     5    4   12      ar
     6    5    6       1
     7    5    8      ar
     8    6    7       1
     9    8    9       1
    10    8   11      ar
    11    9   10       1
    12   11   12      ar
    13   12   13       1
    14   13   14       1
    15   14   15       2
    16   14   23       1
    17   15   16       1
    18   16   17      ar
    19   16   19      ar
    20   17   18       1
    21   17   22      ar
    22   19   20      ar
    23   19   23       1
    24   20   21      ar
    25   21   22      ar
    26   23   24       1
    27   24   25       1
    28   25   26       1
    29   26   27       1
    30    1   28       1
    31    1   29       1
    32    1   30       1
    33    4   31       1
    34    7   32       1
    35    7   33       1
    36    7   34       1
    37   10   35       1
    38   10   36       1
    39   10   37       1
    40   11   38       1
    41   13   39       1
    42   13   40       1
    43   18   41       1
    44   18   42       1
    45   21   43       1
    46   24   44       1
    47   24   45       1
    48   25   46       1
    49   25   47       1
    50   26   48       1
    51   26   49       1
    52   27   50       1
    53   27   51       1
    54   27   52       1
@<TRIPOS>SUBSTRUCTURE
     1 PU31224     1 GROUP             4 A     PU3     0 **** PU3 A1224
