@<TRIPOS>MOLECULE
2ei0_BP7_2_ligand
   24    25     1     0     0
SMALL
NO_CHARGES


@<TRIPOS>ATOM
     1 CA1         25.3510    26.1130    21.5420 C.ar         1 BP7401   0.0000
     2 CA2         25.0630    27.0860    22.5100 C.ar         1 BP7401   0.0000
     3 CA3         25.7930    28.2760    22.5580 C.ar         1 BP7401   0.0000
     4 OA3         25.5130    29.2310    23.5010 O.3          1 BP7401   0.0000
     5 CA4         26.8130    28.4910    21.6300 C.ar         1 BP7401   0.0000
     6 OA4         27.5280    29.6470    21.6640 O.3          1 BP7401   0.0000
     7 CA5         27.1070    27.5300    20.6590 C.ar         1 BP7401   0.0000
     8 CA6         26.3760    26.3390    20.6180 C.ar         1 BP7401   0.0000
     9 CB1         24.5730    24.8380    21.5050 C.ar         1 BP7401   0.0000
    10 CB2         24.2330    24.2130    22.7070 C.ar         1 BP7401   0.0000
    11 CB3         23.5030    23.0240    22.6970 C.ar         1 BP7401   0.0000
    12 CB4         23.1060    22.4390    21.4890 C.ar         1 BP7401   0.0000
    13 CB5         23.4450    23.0520    20.2820 C.ar         1 BP7401   0.0000
    14 CB6         24.1730    24.2490    20.2900 C.ar         1 BP7401   0.0000
    15 HA2         24.3296    26.9267    23.1708 H            1 BP7401   0.0000
    16 HA3         24.7797    29.0794    24.1638 H            1 BP7401   0.0000
    17 HA4         28.2591    29.8024    20.9997 H            1 BP7401   0.0000
    18 HA5         27.8375    27.6936    19.9960 H            1 BP7401   0.0000
    19 HA6         26.5864    25.6476    19.9268 H            1 BP7401   0.0000
    20 HB2         24.5135    24.6187    23.5769 H            1 BP7401   0.0000
    21 HB3         23.2608    22.5850    23.5622 H            1 BP7401   0.0000
    22 HB4         22.5826    21.5869    21.4908 H            1 BP7401   0.0000
    23 HB5         23.1692    22.6383    19.4144 H            1 BP7401   0.0000
    24 HB6         24.4109    24.6895    19.4243 H            1 BP7401   0.0000
@<TRIPOS>BOND
     1    1    2      ar
     2    1    8      ar
     3    1    9       1
     4    2    3      ar
     5    3    4       1
     6    3    5      ar
     7    5    6       1
     8    5    7      ar
     9    7    8      ar
    10    9   10      ar
    11    9   14      ar
    12   10   11      ar
    13   11   12      ar
    14   12   13      ar
    15   13   14      ar
    16    2   15       1
    17    4   16       1
    18    6   17       1
    19    7   18       1
    20    8   19       1
    21   10   20       1
    22   11   21       1
    23   12   22       1
    24   13   23       1
    25   14   24       1
@<TRIPOS>SUBSTRUCTURE
     1 BP7401      1 GROUP             4 A     BP7     0 **** BP7 A 401
