@<TRIPOS>MOLECULE
3akl_ADP_3_ligand
   39    41     1     0     0
SMALL
NO_CHARGES


@<TRIPOS>ATOM
     1 PB          30.8920    33.2670    -1.7740 P.3          1 ADP500   0.0000
     2 O1B         31.4470    32.5680    -3.0090 O.co2        1 ADP500   0.0000
     3 O2B         31.2770    32.6900    -0.4300 O.co2        1 ADP500  -1.0000
     4 O3B         29.4210    33.6020    -1.9150 O.co2        1 ADP500  -1.0000
     5 PA          31.2440    35.9670    -2.4540 P.3          1 ADP500   0.0000
     6 O1A         32.2370    36.4110    -3.5120 O.co2        1 ADP500   0.0000
     7 O2A         29.7860    35.8060    -2.8240 O.co2        1 ADP500  -1.0000
     8 O3A         31.6870    34.6580    -1.6360 O.3          1 ADP500   0.0000
     9 O5'         31.2290    37.0710    -1.3150 O.3          1 ADP500   0.0000
    10 C5'         30.3210    38.0530    -1.7390 C.3          1 ADP500   0.0000
    11 C4'         29.7620    38.7990    -0.5700 C.3          1 ADP500   0.0000
    12 O4'         30.7880    39.6770    -0.1220 O.3          1 ADP500   0.0000
    13 C3'         28.6330    39.6210    -1.1410 C.3          1 ADP500   0.0000
    14 O3'         27.5020    39.5770    -0.2580 O.3          1 ADP500   0.0000
    15 C2'         29.1890    41.0200    -1.2300 C.3          1 ADP500   0.0000
    16 O2'         28.3540    41.8340    -0.4090 O.3          1 ADP500   0.0000
    17 C1'         30.6060    40.9790    -0.6650 C.3          1 ADP500   0.0000
    18 N9          31.6270    41.1610    -1.7380 N.pl3        1 ADP500   0.0000
    19 C8          31.9560    40.2180    -2.6430 C.2          1 ADP500   0.0000
    20 N7          32.9030    40.6470    -3.5010 N.2          1 ADP500   0.0000
    21 C5          33.2040    41.9090    -3.1530 C.ar         1 ADP500   0.0000
    22 C6          34.1430    42.9400    -3.6600 C.ar         1 ADP500   0.0000
    23 N6          34.9540    42.6920    -4.7320 N.pl3        1 ADP500   0.0000
    24 N1          34.1510    44.1280    -3.0000 N.ar         1 ADP500   0.0000
    25 C2          33.3490    44.3770    -1.9360 C.ar         1 ADP500   0.0000
    26 N3          32.4770    43.4860    -1.4260 N.ar         1 ADP500   0.0000
    27 C4          32.3630    42.2520    -1.9870 C.ar         1 ADP500   0.0000
    28 H5'1        29.5725    37.6146    -2.2365 H            1 ADP500   0.0000
    29 H5'2        30.7917    38.6957    -2.3435 H            1 ADP500   0.0000
    30 H4'         29.4504    38.1841     0.1544 H            1 ADP500   0.0000
    31 H3'         28.3811    39.2863    -2.0490 H            1 ADP500   0.0000
    32 H5          26.7177    39.1866    -0.7401 H            1 ADP500   0.0000
    33 H2'         29.1894    41.3460    -2.1754 H            1 ADP500   0.0000
    34 H7          27.6360    41.2700    -0.0011 H            1 ADP500   0.0000
    35 H1'         30.7189    41.6730     0.0460 H            1 ADP500   0.0000
    36 H9          31.5456    39.3066    -2.6743 H            1 ADP500   0.0000
    37 H10         35.5804    43.3994    -5.0593 H            1 ADP500   0.0000
    38 H11         34.9209    41.8031    -5.1890 H            1 ADP500   0.0000
    39 H12         33.4083    45.2767    -1.5035 H            1 ADP500   0.0000
@<TRIPOS>BOND
     1    1    2      ar
     2    1    3      ar
     3    1    4      ar
     4    1    8       1
     5    5    6      ar
     6    5    7      ar
     7    5    8       1
     8    5    9       1
     9    9   10       1
    10   10   11       1
    11   11   12       1
    12   11   13       1
    13   12   17       1
    14   13   14       1
    15   13   15       1
    16   15   16       1
    17   15   17       1
    18   17   18       1
    19   18   19       1
    20   18   27       1
    21   19   20       2
    22   20   21       1
    23   21   22      ar
    24   21   27      ar
    25   22   23       1
    26   22   24      ar
    27   24   25      ar
    28   25   26      ar
    29   26   27      ar
    30   25   39       1
    31   23   38       1
    32   23   37       1
    33   10   28       1
    34   10   29       1
    35   11   30       1
    36   13   31       1
    37   14   32       1
    38   15   33       1
    39   16   34       1
    40   17   35       1
    41   19   36       1
@<TRIPOS>SUBSTRUCTURE
     1 ADP500      1 GROUP             4 C     ADP     0 **** ADP C 500
