@<TRIPOS>MOLECULE
4m7v_RAR_1_ligand
   71    74     1     0     0
SMALL
NO_CHARGES


@<TRIPOS>ATOM
     1 N01         20.2600   -17.6430     6.8770 N.pl3        1 RAR200   0.0000
     2 C02         21.6800   -17.7640     6.9810 C.ar         1 RAR200   0.0000
     3 C03         22.2880   -17.6170     8.1690 C.ar         1 RAR200   0.0000
     4 C04         21.4590   -17.2990     9.3720 C.3          1 RAR200   0.0000
     5 C05         22.2600   -16.7410    10.5020 C.ar         1 RAR200   0.0000
     6 C06         22.3350   -17.4220    11.7400 C.ar         1 RAR200   0.0000
     7 C07         23.0460   -16.8860    12.7810 C.ar         1 RAR200   0.0000
     8 O08         23.0970   -17.5320    13.9960 O.3          1 RAR200   0.0000
     9 C09         22.1380   -18.4800    14.2880 C.3          1 RAR200   0.0000
    10 C10         23.7480   -15.5890    12.6060 C.ar         1 RAR200   0.0000
    11 O11         24.4910   -15.0820    13.6290 O.3          1 RAR200   0.0000
    12 C12         25.6310   -15.7550    14.0260 C.3          1 RAR200   0.0000
    13 C13         23.6770   -14.9290    11.4090 C.ar         1 RAR200   0.0000
    14 C14         24.2980   -13.5820    11.2390 C.3          1 RAR200   0.0000
    15 C15         25.6400   -13.4260    11.3070 C.3          1 RAR200   0.0000
    16 C16         26.2150   -12.2070    11.9090 C.2          1 RAR200   0.0000
    17 N17         26.3390   -11.0550    11.0760 N.am         1 RAR200   0.0000
    18 N18         25.6090   -11.0330     9.7970 N.3          1 RAR200   0.0000
    19 C19         26.1760   -10.1490     8.7660 C.3          1 RAR200   0.0000
    20 C20         27.2280    -9.9530    11.4610 C.3          1 RAR200   0.0000
    21 C21         28.5970   -10.2240    11.9830 C.3          1 RAR200   0.0000
    22 C22         29.7100   -10.1910    11.0020 C.3          1 RAR200   0.0000
    23 C23         29.5480   -10.9910     9.7600 C.3          1 RAR200   0.0000
    24 C24         27.1150    -8.7140    10.5820 C.ar         1 RAR200   0.0000
    25 C25         26.6860    -8.8210     9.2990 C.ar         1 RAR200   0.0000
    26 C26         26.7070    -7.6820     8.4680 C.ar         1 RAR200   0.0000
    27 C27         27.1480    -6.4240     8.9790 C.ar         1 RAR200   0.0000
    28 C28         27.6030    -6.3190    10.3070 C.ar         1 RAR200   0.0000
    29 C29         27.6040    -7.4160    11.1180 C.ar         1 RAR200   0.0000
    30 O30         26.8260   -12.3140    12.9680 O.2          1 RAR200   0.0000
    31 C31         22.9310   -15.4790    10.3520 C.ar         1 RAR200   0.0000
    32 C32         23.6720   -17.7320     8.2430 C.ar         1 RAR200   0.0000
    33 N33         24.4130   -17.9880     7.1120 N.ar         1 RAR200   1.0000
    34 C34         23.7830   -18.1490     5.8980 C.ar         1 RAR200   0.0000
    35 N35         24.5490   -18.4370     4.7330 N.pl3        1 RAR200   0.0000
    36 N36         22.4540   -18.0370     5.8140 N.ar         1 RAR200   0.0000
    37 H1          19.8124   -17.7535     5.9896 H            1 RAR200   0.0000
    38 H2          19.7138   -17.4479     7.6916 H            1 RAR200   0.0000
    39 H3          21.0123   -18.1383     9.6820 H            1 RAR200   0.0000
    40 H4          20.7644   -16.6282     9.1120 H            1 RAR200   0.0000
    41 H5          21.8671   -18.2982    11.8555 H            1 RAR200   0.0000
    42 H6          22.3080   -18.8566    15.1986 H            1 RAR200   0.0000
    43 H7          21.2326   -18.0559    14.2664 H            1 RAR200   0.0000
    44 H8          22.1783   -19.2145    13.6106 H            1 RAR200   0.0000
    45 H9          26.0632   -15.2620    14.7811 H            1 RAR200   0.0000
    46 H10         25.3863   -16.6769    14.3265 H            1 RAR200   0.0000
    47 H11         26.2684   -15.8131    13.2577 H            1 RAR200   0.0000
    48 H12         23.9061   -12.9955    11.9478 H            1 RAR200   0.0000
    49 H13         24.0172   -13.2498    10.3386 H            1 RAR200   0.0000
    50 H14         25.9834   -13.4736    10.3690 H            1 RAR200   0.0000
    51 H15         25.9938   -14.2006    11.8312 H            1 RAR200   0.0000
    52 H16         24.6728   -10.7333     9.9805 H            1 RAR200   0.0000
    53 H17         25.4659    -9.9629     8.0869 H            1 RAR200   0.0000
    54 H18         26.9387   -10.6255     8.3287 H            1 RAR200   0.0000
    55 H19         26.7740    -9.6316    12.2920 H            1 RAR200   0.0000
    56 H20         28.5872   -11.1338    12.3978 H            1 RAR200   0.0000
    57 H21         28.7932    -9.5396    12.6852 H            1 RAR200   0.0000
    58 H22         30.5307   -10.5221    11.4676 H            1 RAR200   0.0000
    59 H23         29.8426    -9.2378    10.7302 H            1 RAR200   0.0000
    60 H24         30.3605   -10.8848     9.1868 H            1 RAR200   0.0000
    61 H25         29.4313   -11.9553     9.9975 H            1 RAR200   0.0000
    62 H26         28.7432   -10.6711     9.2600 H            1 RAR200   0.0000
    63 H27         26.4114    -7.7558     7.5156 H            1 RAR200   0.0000
    64 H28         27.1336    -5.6148     8.3916 H            1 RAR200   0.0000
    65 H29         27.9258    -5.4394    10.6563 H            1 RAR200   0.0000
    66 H30         27.9295    -7.3481    12.0611 H            1 RAR200   0.0000
    67 H31         22.8664   -14.9857     9.4845 H            1 RAR200   0.0000
    68 H32         24.1322   -17.6279     9.1247 H            1 RAR200   0.0000
    69 H33         24.0927   -18.5541     3.8509 H            1 RAR200   0.0000
    70 H34         25.5433   -18.5222     4.7968 H            1 RAR200   0.0000
    71 H35         25.4088   -18.0571     7.1716 H            1 RAR200   0.0000
@<TRIPOS>BOND
     1    1    2       1
     2    2    3      ar
     3    2   36      ar
     4    3    4       1
     5    3   32      ar
     6    4    5       1
     7    5    6      ar
     8    5   31      ar
     9    6    7      ar
    10    7    8       1
    11    7   10      ar
    12    8    9       1
    13   10   11       1
    14   10   13      ar
    15   11   12       1
    16   13   14       1
    17   13   31      ar
    18   14   15       1
    19   15   16       1
    20   16   17      am
    21   16   30       2
    22   17   18       1
    23   17   20       1
    24   18   19       1
    25   19   25       1
    26   20   21       1
    27   20   24       1
    28   21   22       1
    29   22   23       1
    30   24   25      ar
    31   24   29      ar
    32   25   26      ar
    33   26   27      ar
    34   27   28      ar
    35   28   29      ar
    36   32   33      ar
    37   33   34      ar
    38   34   35       1
    39   34   36      ar
    40    1   37       1
    41    1   38       1
    42    4   39       1
    43    4   40       1
    44    6   41       1
    45    9   42       1
    46    9   43       1
    47    9   44       1
    48   12   45       1
    49   12   46       1
    50   12   47       1
    51   14   48       1
    52   14   49       1
    53   15   50       1
    54   15   51       1
    55   18   52       1
    56   19   53       1
    57   19   54       1
    58   20   55       1
    59   21   56       1
    60   21   57       1
    61   22   58       1
    62   22   59       1
    63   23   60       1
    64   23   61       1
    65   23   62       1
    66   26   63       1
    67   27   64       1
    68   28   65       1
    69   29   66       1
    70   31   67       1
    71   32   68       1
    72   35   69       1
    73   35   70       1
    74   33   71       1
@<TRIPOS>SUBSTRUCTURE
     1 RAR200      1 GROUP             4 A     RAR     0 **** RAR A 200
