@<TRIPOS>MOLECULE
5if9_ANP_1_ligand
   44    46     1     0     0
SMALL
NO_CHARGES


@<TRIPOS>ATOM
     1 PG          13.7480     6.1800    -0.0810 P.3          1 ANP1001   0.0000
     2 O1G         14.4650     6.5720    -1.3350 O.co2        1 ANP1001   0.0000
     3 O2G         12.4890     7.0840     0.1600 O.co2        1 ANP1001  -1.0000
     4 O3G         14.7010     6.2610     1.1490 O.co2        1 ANP1001  -1.0000
     5 PB          14.2780     3.3910    -0.2420 P.3          1 ANP1001   0.0000
     6 O1B         15.2250     3.4570    -1.3930 O.co2        1 ANP1001   0.0000
     7 O2B         15.0310     3.3500     1.1170 O.co2        1 ANP1001  -1.0000
     8 N3B         13.1340     4.6070    -0.2930 N.3          1 ANP1001   0.0000
     9 PA          12.7510     1.2500     0.8050 P.3          1 ANP1001   0.0000
    10 O1A         13.6620     0.3020     1.4810 O.co2        1 ANP1001   0.0000
    11 O2A         11.9980     2.1940     1.7430 O.co2        1 ANP1001  -1.0000
    12 O3A         13.4830     2.0340    -0.3920 O.3          1 ANP1001   0.0000
    13 O5'         11.7090     0.3560    -0.0320 O.3          1 ANP1001   0.0000
    14 C5'         10.7110     0.9810    -0.8710 C.3          1 ANP1001   0.0000
    15 C4'          9.4760     0.1110    -0.7720 C.3          1 ANP1001   0.0000
    16 O4'          9.7430    -1.1630    -1.4070 O.3          1 ANP1001   0.0000
    17 C3'          9.0320    -0.2040     0.6550 C.3          1 ANP1001   0.0000
    18 O3'          7.6110    -0.2000     0.7590 O.3          1 ANP1001   0.0000
    19 C2'          9.6170    -1.5970     0.8970 C.3          1 ANP1001   0.0000
    20 O2'          8.8940    -2.3510     1.8660 O.3          1 ANP1001   0.0000
    21 C1'          9.4930    -2.2130    -0.4930 C.3          1 ANP1001   0.0000
    22 N9          10.4520    -3.2790    -0.7510 N.pl3        1 ANP1001   0.0000
    23 C8          11.8100    -3.2300    -0.5820 C.2          1 ANP1001   0.0000
    24 N7          12.4280    -4.3440    -0.8970 N.2          1 ANP1001   0.0000
    25 C5          11.4050    -5.1800    -1.3100 C.ar         1 ANP1001   0.0000
    26 C6          11.3980    -6.5060    -1.7910 C.ar         1 ANP1001   0.0000
    27 N6          12.4950    -7.2560    -1.9280 N.pl3        1 ANP1001   0.0000
    28 N1          10.2050    -7.0440    -2.1250 N.ar         1 ANP1001   0.0000
    29 C2           9.1030    -6.2990    -1.9990 C.ar         1 ANP1001   0.0000
    30 N3           8.9870    -5.0430    -1.5620 N.ar         1 ANP1001   0.0000
    31 C4          10.1810    -4.5370    -1.2350 C.ar         1 ANP1001   0.0000
    32 H3B         12.4654     4.4347     0.4304 H            1 ANP1001   0.0000
    33 H5'1        11.0306     1.0238    -1.8176 H            1 ANP1001   0.0000
    34 H5'2        10.5119     1.9049    -0.5443 H            1 ANP1001   0.0000
    35 H4'          8.7237     0.5610    -1.2531 H            1 ANP1001   0.0000
    36 H3'          9.4283     0.4545     1.2948 H            1 ANP1001   0.0000
    37 H6           7.3451    -0.4083     1.7002 H            1 ANP1001   0.0000
    38 H2'         10.5792    -1.5274     1.1602 H            1 ANP1001   0.0000
    39 H8           9.3232    -3.2471     1.9791 H            1 ANP1001   0.0000
    40 H1'          8.5639    -2.5585    -0.6251 H            1 ANP1001   0.0000
    41 H10         12.2882    -2.4176    -0.2483 H            1 ANP1001   0.0000
    42 H11         12.4214    -8.1908    -2.2755 H            1 ANP1001   0.0000
    43 H12         13.3898    -6.8826    -1.6830 H            1 ANP1001   0.0000
    44 H13          8.2485    -6.7429    -2.2689 H            1 ANP1001   0.0000
@<TRIPOS>BOND
     1    1    2      ar
     2    1    3      ar
     3    1    4      ar
     4    1    8       1
     5    5    6      ar
     6    5    7      ar
     7    5    8       1
     8    5   12       1
     9    9   10      ar
    10    9   11      ar
    11    9   12       1
    12    9   13       1
    13   13   14       1
    14   14   15       1
    15   15   16       1
    16   15   17       1
    17   16   21       1
    18   17   18       1
    19   17   19       1
    20   19   20       1
    21   19   21       1
    22   21   22       1
    23   22   23       1
    24   22   31       1
    25   23   24       2
    26   24   25       1
    27   25   26      ar
    28   25   31      ar
    29   26   27       1
    30   26   28      ar
    31   28   29      ar
    32   29   30      ar
    33   30   31      ar
    34   29   44       1
    35   27   43       1
    36   27   42       1
    37    8   32       1
    38   23   41       1
    39   14   33       1
    40   14   34       1
    41   15   35       1
    42   17   36       1
    43   18   37       1
    44   19   38       1
    45   20   39       1
    46   21   40       1
@<TRIPOS>SUBSTRUCTURE
     1 ANP1001     1 GROUP             4 A     ANP     0 **** ANP A1001
