@<TRIPOS>MOLECULE
2y04_68H_3_ligand
   39    39     1     0     0
SMALL
USER_CHARGES


@<TRIPOS>ATOM
     1 O2         -20.5720   -13.3880    28.7190 O.3          1 68H601   0.0000
     2 C2         -19.9640   -12.8280    27.5540 C.3          1 68H601   0.0000
     3 C12        -20.9390   -12.4700    26.4450 C.ar         1 68H601   0.0000
     4 C11        -20.3920   -11.6740    25.3160 C.ar         1 68H601   0.0000
     5 O1         -19.0790   -11.3060    25.2970 O.3          1 68H601   0.0000
     6 C10        -21.2240   -11.3120    24.2620 C.ar         1 68H601   0.0000
     7 C9         -22.5580   -11.7040    24.2740 C.ar         1 68H601   0.0000
     8 C13        -22.3020   -12.8380    26.4090 C.ar         1 68H601   0.0000
     9 C8         -23.1070   -12.4500    25.3170 C.ar         1 68H601   0.0000
    10 C1         -24.5500   -12.7900    25.2030 C.3          1 68H601   0.0000
    11 O3         -25.1390   -12.1870    24.0370 O.3          1 68H601   0.0000
    12 C3         -24.7830   -14.2960    25.0910 C.3          1 68H601   0.0000
    13 N1         -26.2080   -14.5420    25.3150 N.4          1 68H601   1.0000
    14 C4         -26.8180   -15.8520    25.3900 C.3          1 68H601   0.0000
    15 C7         -26.0070   -16.8520    24.5670 C.3          1 68H601   0.0000
    16 C6         -26.8620   -16.2730    26.8560 C.3          1 68H601   0.0000
    17 C5         -28.2240   -15.7730    24.8080 C.3          1 68H601   0.0000
    18 H1         -20.2058   -14.3048    28.8781 H            1 68H601   0.0000
    19 H2         -19.3102   -13.4928    27.1926 H            1 68H601   0.0000
    20 H3         -19.4789   -11.9963    27.8240 H            1 68H601   0.0000
    21 H4         -18.4743   -11.5719    26.0477 H            1 68H601   0.0000
    22 H5         -20.8650   -10.7730    23.5000 H            1 68H601   0.0000
    23 H6         -23.1446   -11.4418    23.5077 H            1 68H601   0.0000
    24 H7         -22.6961   -13.3728    27.1564 H            1 68H601   0.0000
    25 H8         -25.0252   -12.4508    26.0149 H            1 68H601   0.0000
    26 H9         -25.5007   -12.9020    23.4386 H            1 68H601   0.0000
    27 H10        -24.2416   -14.7769    25.7806 H            1 68H601   0.0000
    28 H11        -24.5212   -14.6146    24.1800 H            1 68H601   0.0000
    29 H12        -26.6812   -14.0687    24.5720 H            1 68H601   0.0000
    30 H13        -26.4342   -17.7544    24.6235 H            1 68H601   0.0000
    31 H14        -25.9809   -16.5547    23.6126 H            1 68H601   0.0000
    32 H15        -25.0751   -16.9013    24.9263 H            1 68H601   0.0000
    33 H16        -27.2810   -17.1779    26.9305 H            1 68H601   0.0000
    34 H17        -25.9318   -16.3052    27.2216 H            1 68H601   0.0000
    35 H18        -27.4021   -15.6117    27.3766 H            1 68H601   0.0000
    36 H19        -28.6553   -16.6740    24.8549 H            1 68H601   0.0000
    37 H20        -28.7657   -15.1164    25.3329 H            1 68H601   0.0000
    38 H21        -28.1738   -15.4767    23.8542 H            1 68H601   0.0000
    39 H22        -26.4229   -14.0967    26.1842 H            1 68H601   0.0000
@<TRIPOS>BOND
     1    1    2       1
     2    2    3       1
     3    3    4      ar
     4    3    8      ar
     5    4    5       1
     6    4    6      ar
     7    6    7      ar
     8    7    9      ar
     9    8    9      ar
    10    9   10       1
    11   10   11       1
    12   10   12       1
    13   12   13       1
    14   13   14       1
    15   14   15       1
    16   14   16       1
    17   14   17       1
    18    1   18       1
    19    2   19       1
    20    2   20       1
    21    5   21       1
    22    6   22       1
    23    7   23       1
    24    8   24       1
    25   10   25       1
    26   11   26       1
    27   12   27       1
    28   12   28       1
    29   13   29       1
    30   15   30       1
    31   15   31       1
    32   15   32       1
    33   16   33       1
    34   16   34       1
    35   16   35       1
    36   17   36       1
    37   17   37       1
    38   17   38       1
    39   13   39       1
@<TRIPOS>SUBSTRUCTURE
     1 68H601      1 GROUP             4 A     68H     0 **** 68H A 601
