@<TRIPOS>MOLECULE
1jxz_BCA_1_ligand
   90    93     1     0     0
SMALL
NO_CHARGES


@<TRIPOS>ATOM
     1 N1A         18.1680   113.4310    35.0050 N.ar         1 BCA271   0.0000
     2 C2A         18.5400   113.6780    33.7150 C.ar         1 BCA271   0.0000
     3 N3A         19.7460   113.8280    33.2100 N.ar         1 BCA271   0.0000
     4 C4A         20.7110   113.6790    34.1770 C.ar         1 BCA271   0.0000
     5 C5A         20.4820   113.4740    35.5190 C.ar         1 BCA271   0.0000
     6 C6A         19.1420   113.3310    35.9490 C.ar         1 BCA271   0.0000
     7 N6A         18.7720   113.0730    37.1940 N.pl3        1 BCA271   0.0000
     8 N7A         21.6910   113.4220    36.2270 N.2          1 BCA271   0.0000
     9 C8A         22.6200   113.6100    35.2920 C.2          1 BCA271   0.0000
    10 N9A         22.1050   113.8170    34.0520 N.pl3        1 BCA271   0.0000
    11 C1D         22.8150   114.1710    32.8230 C.3          1 BCA271   0.0000
    12 C2D         23.3680   115.5840    32.9000 C.3          1 BCA271   0.0000
    13 O2D         22.3070   116.4940    32.5830 O.3          1 BCA271   0.0000
    14 C3D         24.3850   115.5340    31.7510 C.3          1 BCA271   0.0000
    15 O3D         23.7140   115.5990    30.4980 O.3          1 BCA271   0.0000
    16 C4D         25.0040   114.1460    31.9980 C.3          1 BCA271   0.0000
    17 O4D         23.9230   113.3680    32.5740 O.3          1 BCA271   0.0000
    18 C5D         26.1670   114.1090    32.9840 C.3          1 BCA271   0.0000
    19 O5D         25.8120   114.9380    34.0950 O.3          1 BCA271   0.0000
    20 P1A         26.9030   115.7670    34.8870 P.3          1 BCA271   0.0000
    21 O1A         26.2150   116.6750    35.9210 O.co2        1 BCA271   0.0000
    22 O2A         27.7520   116.4920    33.8870 O.co2        1 BCA271  -1.0000
    23 O3A         27.6330   114.6100    35.6200 O.3          1 BCA271   0.0000
    24 P2A         28.5120   114.6790    37.0090 P.3          1 BCA271   0.0000
    25 O4A         29.4330   113.5470    37.0440 O.co2        1 BCA271   0.0000
    26 O5A         29.2020   115.9840    37.0420 O.co2        1 BCA271  -1.0000
    27 O6A         27.7020   114.7530    38.3800 O.3          1 BCA271   0.0000
    28 CBP         25.5850   114.0080    39.2300 C.3          1 BCA271   0.0000
    29 CCP         26.7960   113.6340    38.4150 C.3          1 BCA271   0.0000
    30 CDP         26.0450   114.3310    40.6410 C.3          1 BCA271   0.0000
    31 CEP         24.6100   112.8320    39.2270 C.3          1 BCA271   0.0000
    32 CAP         24.8840   115.1970    38.5560 C.3          1 BCA271   0.0000
    33 OAP         24.6030   114.8310    37.1700 O.3          1 BCA271   0.0000
    34 C9P         23.5450   115.4820    39.2040 C.2          1 BCA271   0.0000
    35 O9P         23.4900   116.1540    40.2170 O.2          1 BCA271   0.0000
    36 N8P         22.3060   115.0310    38.5290 N.am         1 BCA271   0.0000
    37 C7P         21.0920   115.6480    39.1490 C.3          1 BCA271   0.0000
    38 C6P         20.7040   114.7910    40.3880 C.3          1 BCA271   0.0000
    39 C5P         19.2670   115.1070    40.8980 C.2          1 BCA271   0.0000
    40 O5P         18.8670   116.2680    41.0990 O.2          1 BCA271   0.0000
    41 N4P         18.3270   113.9950    40.6350 N.am         1 BCA271   0.0000
    42 C3P         16.9100   114.3480    40.9600 C.3          1 BCA271   0.0000
    43 C2P         16.7890   114.4350    42.4950 C.3          1 BCA271   0.0000
    44 S1P         15.0090   114.4230    42.8820 S.3          1 BCA271   0.0000
    45 C1B         14.4970   112.7960    42.4510 C.2          1 BCA271   0.0000
    46 O1B         15.3260   111.9170    42.3060 O.2          1 BCA271   0.0000
    47 C2B         13.0700   112.4780    42.4890 C.ar         1 BCA271   0.0000
    48 C3B         12.6220   111.1380    42.4040 C.ar         1 BCA271   0.0000
    49 C4B         11.2680   110.8310    42.3580 C.ar         1 BCA271   0.0000
    50 C5B         10.3040   111.8570    42.5440 C.ar         1 BCA271   0.0000
    51 O2B          8.9380   111.5310    42.5230 O.3          1 BCA271   0.0000
    52 C6B         10.7300   113.2010    42.6440 C.ar         1 BCA271   0.0000
    53 C7B         12.1260   113.5120    42.6030 C.ar         1 BCA271   0.0000
    54 H2A         17.7885   113.7562    33.0599 H            1 BCA271   0.0000
    55 H6A1        19.4613   112.9926    37.9140 H            1 BCA271   0.0000
    56 H6A2        17.8033   112.9585    37.4142 H            1 BCA271   0.0000
    57 H8A         23.6014   113.5998    35.4838 H            1 BCA271   0.0000
    58 H1D         22.1838   114.1076    32.0499 H            1 BCA271   0.0000
    59 H2D         23.7942   115.7826    33.7825 H            1 BCA271   0.0000
    60 H7          22.6486   117.4328    32.6275 H            1 BCA271   0.0000
    61 H3D         25.0685   116.2589    31.8369 H            1 BCA271   0.0000
    62 H9          24.3858   115.5657    29.7580 H            1 BCA271   0.0000
    63 H4D         25.2854   113.7415    31.1278 H            1 BCA271   0.0000
    64 H5D1        26.9962   114.4585    32.5479 H            1 BCA271   0.0000
    65 H5D2        26.3231   113.1710    33.2935 H            1 BCA271   0.0000
    66 HCP1        27.2509   112.8473    38.8323 H            1 BCA271   0.0000
    67 HCP2        26.5147   113.4012    37.4840 H            1 BCA271   0.0000
    68 HDP1        25.2548   114.5824    41.1999 H            1 BCA271   0.0000
    69 HDP2        26.4922   113.5293    41.0375 H            1 BCA271   0.0000
    70 HDP3        26.6908   115.0940    40.6146 H            1 BCA271   0.0000
    71 HEP1        23.8011   113.0683    39.7654 H            1 BCA271   0.0000
    72 HEP2        24.3368   112.6279    38.2869 H            1 BCA271   0.0000
    73 HEP3        25.0538   112.0300    39.6267 H            1 BCA271   0.0000
    74 HAP         25.4666   116.0090    38.5900 H            1 BCA271   0.0000
    75 H22         25.0674   115.4692    36.5560 H            1 BCA271   0.0000
    76 H8P         22.2837   114.3953    37.7574 H            1 BCA271   0.0000
    77 H7P1        20.3395   115.6543    38.4905 H            1 BCA271   0.0000
    78 H7P2        21.2941   116.5852    39.4333 H            1 BCA271   0.0000
    79 H6P1        21.3547   114.9769    41.1242 H            1 BCA271   0.0000
    80 H6P2        20.7511   113.8240    40.1377 H            1 BCA271   0.0000
    81 H4P         18.6084   113.1040    40.2786 H            1 BCA271   0.0000
    82 H3P1        16.2942   113.6425    40.6092 H            1 BCA271   0.0000
    83 H3P2        16.6757   115.2292    40.5494 H            1 BCA271   0.0000
    84 H2P1        17.2079   115.2804    42.8263 H            1 BCA271   0.0000
    85 H2P2        17.2395   113.6505    42.9211 H            1 BCA271   0.0000
    86 H3B         13.2936   110.3976    42.3765 H            1 BCA271   0.0000
    87 H4B         10.9728   109.8897    42.1943 H            1 BCA271   0.0000
    88 H2B          8.2512   112.2462    42.6530 H            1 BCA271   0.0000
    89 H6B         10.0566   113.9336    42.7433 H            1 BCA271   0.0000
    90 H7B         12.4291   114.4635    42.6554 H            1 BCA271   0.0000
@<TRIPOS>BOND
     1    1    2      ar
     2    1    6      ar
     3    2    3      ar
     4    3    4      ar
     5    4    5      ar
     6    4   10       1
     7    5    6      ar
     8    5    8       1
     9    6    7       1
    10    8    9       2
    11    9   10       1
    12   10   11       1
    13   11   12       1
    14   11   17       1
    15   12   13       1
    16   12   14       1
    17   14   15       1
    18   14   16       1
    19   16   17       1
    20   16   18       1
    21   18   19       1
    22   19   20       1
    23   20   21      ar
    24   20   22      ar
    25   20   23       1
    26   23   24       1
    27   24   25      ar
    28   24   26      ar
    29   24   27       1
    30   27   29       1
    31   28   29       1
    32   28   30       1
    33   28   31       1
    34   28   32       1
    35   32   33       1
    36   32   34       1
    37   34   35       2
    38   34   36      am
    39   36   37       1
    40   37   38       1
    41   38   39       1
    42   39   40       2
    43   39   41      am
    44   41   42       1
    45   42   43       1
    46   43   44       1
    47   44   45       1
    48   45   46       2
    49   45   47       1
    50   47   48      ar
    51   47   53      ar
    52   48   49      ar
    53   49   50      ar
    54   50   51       1
    55   50   52      ar
    56   52   53      ar
    57    2   54       1
    58    7   55       1
    59    7   56       1
    60    9   57       1
    61   11   58       1
    62   12   59       1
    63   13   60       1
    64   14   61       1
    65   15   62       1
    66   16   63       1
    67   18   64       1
    68   18   65       1
    69   53   90       1
    70   52   89       1
    71   29   66       1
    72   29   67       1
    73   30   68       1
    74   30   69       1
    75   30   70       1
    76   31   71       1
    77   31   72       1
    78   31   73       1
    79   32   74       1
    80   33   75       1
    81   36   76       1
    82   37   77       1
    83   37   78       1
    84   38   79       1
    85   38   80       1
    86   41   81       1
    87   42   82       1
    88   42   83       1
    89   43   84       1
    90   43   85       1
    91   48   86       1
    92   49   87       1
    93   51   88       1
@<TRIPOS>SUBSTRUCTURE
     1 BCA271      1 GROUP             4 A     BCA     0 **** BCA A 271
