@<TRIPOS>MOLECULE
2ewa_SB2_1_ligand
   43    46     1     0     0
SMALL
NO_CHARGES


@<TRIPOS>ATOM
     1 O2          -0.3300     9.2600    24.1280 O.2          1 SB2361   0.0000
     2 C1          -1.4230    10.5410    21.8210 C.3          1 SB2361   0.0000
     3 S1          -1.6730     9.4110    23.2440 S.o          1 SB2361   0.0000
     4 CA1         -2.4570     5.3800    22.9950 C.ar         1 SB2361   0.0000
     5 CA2         -2.0380     6.6730    23.4850 C.ar         1 SB2361   0.0000
     6 CA3         -2.2040     7.8440    22.6250 C.ar         1 SB2361   0.0000
     7 CA4         -2.7880     7.7500    21.2820 C.ar         1 SB2361   0.0000
     8 CA5         -3.2060     6.4460    20.8020 C.ar         1 SB2361   0.0000
     9 CA6         -3.0530     5.2140    21.6420 C.ar         1 SB2361   0.0000
    10 NB1         -3.6120    -2.3390    22.7720 N.ar         1 SB2361   0.0000
    11 CB2         -4.0950    -1.3450    23.6270 C.ar         1 SB2361   0.0000
    12 CB3         -4.1700     0.0440    23.1630 C.ar         1 SB2361   0.0000
    13 CB4         -3.7210     0.3530    21.7690 C.ar         1 SB2361   0.0000
    14 CB5         -3.2110    -0.7840    20.9120 C.ar         1 SB2361   0.0000
    15 CB6         -3.1790    -2.1190    21.4670 C.ar         1 SB2361   0.0000
    16 NC1         -3.2780     2.7930    21.9870 N.pl3        1 SB2361   0.0000
    17 CC2         -3.4490     3.9120    21.1770 C.2          1 SB2361   0.0000
    18 NC3         -4.0120     3.6940    19.9220 N.2          1 SB2361   0.0000
    19 CC4         -4.2270     2.2950    19.9070 C.2          1 SB2361   0.0000
    20 CC5         -3.7570     1.7240    21.2200 C.2          1 SB2361   0.0000
    21 CD1         -4.1230     1.7920    17.4690 C.ar         1 SB2361   0.0000
    22 CD2         -4.6410     1.1720    16.2760 C.ar         1 SB2361   0.0000
    23 CD3         -5.8550     0.3820    16.3300 C.ar         1 SB2361   0.0000
    24 CD4         -6.5790     0.2000    17.6010 C.ar         1 SB2361   0.0000
    25 CD5         -6.0610     0.8240    18.8110 C.ar         1 SB2361   0.0000
    26 CD6         -4.8050     1.6420    18.7620 C.ar         1 SB2361   0.0000
    27 FD3         -6.2980    -0.1800    15.1720 F            1 SB2361   0.0000
    28 H1          -2.2722    10.6106    21.2975 H            1 SB2361   0.0000
    29 H2          -1.1628    11.4465    22.1561 H            1 SB2361   0.0000
    30 H3          -0.6977    10.1819    21.2336 H            1 SB2361   0.0000
    31 HA1         -2.3436     4.5768    23.5798 H            1 SB2361   0.0000
    32 HA2         -1.6407     6.7657    24.3980 H            1 SB2361   0.0000
    33 HA4         -2.8952     8.5644    20.7117 H            1 SB2361   0.0000
    34 HA5         -3.6058     6.3674    19.8888 H            1 SB2361   0.0000
    35 HB2         -4.3889    -1.5804    24.5534 H            1 SB2361   0.0000
    36 HB3         -4.5126     0.7669    23.7630 H            1 SB2361   0.0000
    37 HB5         -2.9008    -0.6153    19.9764 H            1 SB2361   0.0000
    38 HB6         -2.8464    -2.8831    20.9143 H            1 SB2361   0.0000
    39 HC1         -2.8976     2.7599    22.9112 H            1 SB2361   0.0000
    40 HD1         -3.2843     2.3341    17.4162 H            1 SB2361   0.0000
    41 HD2         -4.1606     1.2873    15.4065 H            1 SB2361   0.0000
    42 HD4         -7.4164    -0.3457    17.6322 H            1 SB2361   0.0000
    43 HD5         -6.5450     0.7064    19.6781 H            1 SB2361   0.0000
@<TRIPOS>BOND
     1    1    3       2
     2    2    3       1
     3    3    6       1
     4    4    5      ar
     5    4    9      ar
     6    5    6      ar
     7    6    7      ar
     8    7    8      ar
     9    8    9      ar
    10    9   17       1
    11   10   11      ar
    12   10   15      ar
    13   11   12      ar
    14   12   13      ar
    15   13   14      ar
    16   13   20       1
    17   14   15      ar
    18   16   17       1
    19   16   20       1
    20   17   18       2
    21   18   19       1
    22   19   20       2
    23   19   26       1
    24   21   22      ar
    25   21   26      ar
    26   22   23      ar
    27   23   24      ar
    28   23   27       1
    29   24   25      ar
    30   25   26      ar
    31    2   28       1
    32    2   29       1
    33    2   30       1
    34    4   31       1
    35    5   32       1
    36    7   33       1
    37    8   34       1
    38   11   35       1
    39   12   36       1
    40   14   37       1
    41   15   38       1
    42   16   39       1
    43   21   40       1
    44   22   41       1
    45   24   42       1
    46   25   43       1
@<TRIPOS>SUBSTRUCTURE
     1 SB2361      1 GROUP             4 A     SB2     0 **** SB2 A 361
