@<TRIPOS>MOLECULE
1gaw_FAD_1_ligand
   84    89     1     0     0
SMALL
NO_CHARGES


@<TRIPOS>ATOM
     1 PA          44.5160    16.1990     5.7710 P.3          1 FAD320   0.0000
     2 O1A         44.6300    17.5230     6.4430 O.co2        1 FAD320   0.0000
     3 O2A         44.5160    16.1770     4.4140 O.co2        1 FAD320  -1.0000
     4 O5B         45.8340    15.6030     6.1930 O.3          1 FAD320   0.0000
     5 C5B         46.3900    14.3360     5.7110 C.3          1 FAD320   0.0000
     6 C4B         47.9500    14.4190     5.9300 C.3          1 FAD320   0.0000
     7 O4B         48.2940    13.4230     6.9910 O.3          1 FAD320   0.0000
     8 C3B         48.8420    14.0170     4.7120 C.3          1 FAD320   0.0000
     9 O3B         50.0430    14.7280     4.6590 O.3          1 FAD320   0.0000
    10 C2B         48.9710    12.4730     4.8920 C.3          1 FAD320   0.0000
    11 O2B         50.1080    11.9320     4.2640 O.3          1 FAD320   0.0000
    12 C1B         49.0110    12.2770     6.3910 C.3          1 FAD320   0.0000
    13 N9A         48.2640    11.1160     6.9130 N.pl3        1 FAD320   0.0000
    14 C8A         47.1680    10.4880     6.3320 C.2          1 FAD320   0.0000
    15 N7A         46.7070     9.4600     7.0470 N.2          1 FAD320   0.0000
    16 C5A         47.5330     9.4090     8.1450 C.ar         1 FAD320   0.0000
    17 C6A         47.5610     8.5060     9.3200 C.ar         1 FAD320   0.0000
    18 N6A         46.7120     7.5230     9.4970 N.pl3        1 FAD320   0.0000
    19 N1A         48.5680     8.7690    10.2460 N.ar         1 FAD320   0.0000
    20 C2A         49.4780     9.7990    10.0850 C.ar         1 FAD320   0.0000
    21 N3A         49.5260    10.6750     9.0430 N.ar         1 FAD320   0.0000
    22 C4A         48.5340    10.4420     8.0990 C.ar         1 FAD320   0.0000
    23 N1          38.5190     8.3510     4.4250 N.2          1 FAD320   0.0000
    24 C2          37.6100     7.8960     5.2940 C.2          1 FAD320   0.0000
    25 O2          37.6810     8.1230     6.4800 O.2          1 FAD320   0.0000
    26 N3          36.4720     7.1340     4.8580 N.pl3        1 FAD320   0.0000
    27 C4          36.2780     6.7990     3.5150 C.2          1 FAD320   0.0000
    28 O4          35.2940     6.1560     3.1920 O.2          1 FAD320   0.0000
    29 C4X         37.2860     7.2530     2.5590 C.2          1 FAD320   0.0000
    30 N5          37.1530     6.9580     1.2230 N.2          1 FAD320   0.0000
    31 C5X         38.1050     7.4460     0.3460 C.ar         1 FAD320   0.0000
    32 C6          37.9550     7.1360    -1.0490 C.ar         1 FAD320   0.0000
    33 C7          38.8780     7.5950    -2.0020 C.ar         1 FAD320   0.0000
    34 C7M         38.6780     7.2490    -3.4650 C.3          1 FAD320   0.0000
    35 C8          40.0370     8.4090    -1.5790 C.ar         1 FAD320   0.0000
    36 C8M         41.0700     8.9300    -2.5530 C.3          1 FAD320   0.0000
    37 C9          40.1990     8.7260    -0.2040 C.ar         1 FAD320   0.0000
    38 C9A         39.2470     8.2580     0.7650 C.ar         1 FAD320   0.0000
    39 N10         39.3400     8.5480     2.2050 N.pl3        1 FAD320   0.0000
    40 C10         38.4130     8.0720     3.0820 C.2          1 FAD320   0.0000
    41 C1'         40.4740     9.3930     2.6930 C.3          1 FAD320   0.0000
    42 C2'         40.0240    10.9080     2.7600 C.3          1 FAD320   0.0000
    43 O2'         39.7760    11.3800     1.4360 O.3          1 FAD320   0.0000
    44 C3'         41.1170    11.7730     3.4020 C.3          1 FAD320   0.0000
    45 O3'         42.3670    11.4770     2.7940 O.3          1 FAD320   0.0000
    46 C4'         41.2210    11.5290     4.9260 C.3          1 FAD320   0.0000
    47 O4'         39.9440    11.6770     5.5600 O.3          1 FAD320   0.0000
    48 C5'         42.2300    12.5150     5.4770 C.3          1 FAD320   0.0000
    49 O5'         41.7940    13.9750     5.1070 O.3          1 FAD320   0.0000
    50 P           41.9120    15.1160     6.1030 P.3          1 FAD320   0.0000
    51 O1P         41.4000    16.3630     5.3880 O.co2        1 FAD320   0.0000
    52 O2P         41.3240    14.8320     7.3310 O.co2        1 FAD320  -1.0000
    53 O3P         43.3140    15.2960     6.4110 O.3          1 FAD320   0.0000
    54 H5B1        46.1834    14.2153     4.7400 H            1 FAD320   0.0000
    55 H5B2        46.0084    13.5715     6.2305 H            1 FAD320   0.0000
    56 H4B         48.1973    15.3374     6.2387 H            1 FAD320   0.0000
    57 H3B         48.3303    14.1963     3.8717 H            1 FAD320   0.0000
    58 H5          50.5712    14.4313     3.8634 H            1 FAD320   0.0000
    59 H2B         48.1525    12.0308     4.5254 H            1 FAD320   0.0000
    60 H7          50.1338    10.9438     4.4151 H            1 FAD320   0.0000
    61 H1B         49.9576    12.2534     6.7125 H            1 FAD320   0.0000
    62 H8A         46.7650    10.7781     5.4640 H            1 FAD320   0.0000
    63 H6A1        46.7788     6.9450    10.3103 H            1 FAD320   0.0000
    64 H6A2        45.9976     7.3511     8.8187 H            1 FAD320   0.0000
    65 H2A         50.1660     9.9109    10.8020 H            1 FAD320   0.0000
    66 H13         35.7996     6.8349     5.5351 H            1 FAD320   0.0000
    67 H14         37.1775     6.5822    -1.3470 H            1 FAD320   0.0000
    68 H7M1        39.4173     7.6495    -4.0063 H            1 FAD320   0.0000
    69 H7M2        38.6839     6.2552    -3.5763 H            1 FAD320   0.0000
    70 H7M3        37.8009     7.6142    -3.7770 H            1 FAD320   0.0000
    71 H8M1        41.7624     9.4533    -2.0563 H            1 FAD320   0.0000
    72 H8M2        41.5053     8.1606    -3.0204 H            1 FAD320   0.0000
    73 H8M3        40.6253     9.5206    -3.2263 H            1 FAD320   0.0000
    74 H21         40.9793     9.2775     0.0910 H            1 FAD320   0.0000
    75 H1'1        41.2479     9.3041     2.0660 H            1 FAD320   0.0000
    76 H1'2        40.7471     9.0873     3.6051 H            1 FAD320   0.0000
    77 H2'         39.1852    10.9804     3.2996 H            1 FAD320   0.0000
    78 H25         38.8178    11.2196     1.1990 H            1 FAD320   0.0000
    79 H3'         40.9010    12.7364     3.2433 H            1 FAD320   0.0000
    80 H27         42.9482    12.2905     2.8137 H            1 FAD320   0.0000
    81 H4'         41.5558    10.6000     5.0837 H            1 FAD320   0.0000
    82 H29         39.6928    10.8189     6.0079 H            1 FAD320   0.0000
    83 H5'1        43.1294    12.3262     5.0828 H            1 FAD320   0.0000
    84 H5'2        42.2761    12.4233     6.4717 H            1 FAD320   0.0000
@<TRIPOS>BOND
     1    1    2      ar
     2    1    3      ar
     3    1    4       1
     4    1   53       1
     5    4    5       1
     6    5    6       1
     7    6    7       1
     8    6    8       1
     9    7   12       1
    10    8    9       1
    11    8   10       1
    12   10   11       1
    13   10   12       1
    14   12   13       1
    15   13   14       1
    16   13   22       1
    17   14   15       2
    18   15   16       1
    19   16   17      ar
    20   16   22      ar
    21   17   18       1
    22   17   19      ar
    23   19   20      ar
    24   20   21      ar
    25   21   22      ar
    26   23   24       1
    27   23   40       2
    28   24   25       2
    29   24   26       1
    30   26   27       1
    31   27   28       2
    32   27   29       1
    33   29   30       2
    34   29   40       1
    35   30   31       1
    36   31   32      ar
    37   31   38      ar
    38   32   33      ar
    39   33   34       1
    40   33   35      ar
    41   35   36       1
    42   35   37      ar
    43   37   38      ar
    44   38   39       1
    45   39   40       1
    46   39   41       1
    47   41   42       1
    48   42   43       1
    49   42   44       1
    50   44   45       1
    51   44   46       1
    52   46   47       1
    53   46   48       1
    54   48   49       1
    55   49   50       1
    56   50   51      ar
    57   50   52      ar
    58   50   53       1
    59   48   84       1
    60    5   54       1
    61    5   55       1
    62    6   56       1
    63    8   57       1
    64    9   58       1
    65   10   59       1
    66   11   60       1
    67   12   61       1
    68   14   62       1
    69   18   63       1
    70   18   64       1
    71   20   65       1
    72   26   66       1
    73   32   67       1
    74   34   68       1
    75   34   69       1
    76   34   70       1
    77   36   71       1
    78   36   72       1
    79   36   73       1
    80   37   74       1
    81   41   75       1
    82   41   76       1
    83   42   77       1
    84   43   78       1
    85   44   79       1
    86   45   80       1
    87   46   81       1
    88   47   82       1
    89   48   83       1
@<TRIPOS>SUBSTRUCTURE
     1 FAD320      1 GROUP             4 A     FAD     0 **** FAD A 320
