@<TRIPOS>MOLECULE
1zcb_GDP_1_ligand
   40    42     1     0     0
SMALL
NO_CHARGES


@<TRIPOS>ATOM
     1 PB         -30.6500    -3.9820    22.8360 P.3          1 GDP378   0.0000
     2 O1B        -31.8780    -4.6300    22.2210 O.co2        1 GDP378   0.0000
     3 O2B        -30.9740    -3.4630    24.1380 O.co2        1 GDP378  -1.0000
     4 O3B        -29.5200    -5.0120    22.9950 O.co2        1 GDP378  -1.0000
     5 O3A        -30.1380    -2.9360    21.7600 O.3          1 GDP378   0.0000
     6 PA         -29.6190    -1.5030    22.2550 P.3          1 GDP378   0.0000
     7 O1A        -30.8150    -0.7300    22.6790 O.co2        1 GDP378   0.0000
     8 O2A        -28.6840    -1.5370    23.3820 O.co2        1 GDP378  -1.0000
     9 O5'        -28.9980    -0.9730    20.9240 O.3          1 GDP378   0.0000
    10 C5'        -27.7930    -1.4010    20.2640 C.3          1 GDP378   0.0000
    11 C4'        -27.0060    -0.2080    19.7060 C.3          1 GDP378   0.0000
    12 O4'        -27.6530     0.2740    18.5360 O.3          1 GDP378   0.0000
    13 C3'        -26.9440     0.9870    20.6730 C.3          1 GDP378   0.0000
    14 O3'        -25.6710     1.6450    20.5130 O.3          1 GDP378   0.0000
    15 C2'        -28.0420     1.9290    20.1970 C.3          1 GDP378   0.0000
    16 O2'        -27.6870     3.3160    20.4090 O.3          1 GDP378   0.0000
    17 C1'        -28.0600     1.6640    18.7330 C.3          1 GDP378   0.0000
    18 N9         -29.3770     1.8550    18.0680 N.pl3        1 GDP378   0.0000
    19 C8         -30.5850     1.4970    18.5630 C.2          1 GDP378   0.0000
    20 N7         -31.5320     1.7550    17.6700 N.2          1 GDP378   0.0000
    21 C5         -30.9440     2.3550    16.6190 C.2          1 GDP378   0.0000
    22 C6         -31.3840     2.9190    15.3640 C.2          1 GDP378   0.0000
    23 O6         -32.5920     2.8870    15.0540 O.2          1 GDP378   0.0000
    24 N1         -30.4630     3.4310    14.5420 N.pl3        1 GDP378   0.0000
    25 C2         -29.1490     3.4630    14.8450 C.2          1 GDP378   0.0000
    26 N2         -28.2760     4.0420    13.9580 N.pl3        1 GDP378   0.0000
    27 N3         -28.6640     2.9880    15.9880 N.2          1 GDP378   0.0000
    28 C4         -29.5150     2.4190    16.8920 C.2          1 GDP378   0.0000
    29 H5'1       -28.0344    -2.0125    19.5105 H            1 GDP378   0.0000
    30 H5'2       -27.2191    -1.8910    20.9202 H            1 GDP378   0.0000
    31 H4'        -26.0773    -0.4995    19.4769 H            1 GDP378   0.0000
    32 H3'        -27.0919     0.7004    21.6196 H            1 GDP378   0.0000
    33 H5         -25.8189     2.5930    20.2313 H            1 GDP378   0.0000
    34 H2'        -28.9212     1.7082    20.6191 H            1 GDP378   0.0000
    35 H7         -28.0012     3.6061    21.3130 H            1 GDP378   0.0000
    36 H1'        -27.3890     2.2597    18.2915 H            1 GDP378   0.0000
    37 H9         -30.7405     1.0978    19.4666 H            1 GDP378   0.0000
    38 H10        -30.7609     3.8066    13.6644 H            1 GDP378   0.0000
    39 H11        -27.2986     4.0741    14.1671 H            1 GDP378   0.0000
    40 H12        -28.6174     4.4317    13.1027 H            1 GDP378   0.0000
@<TRIPOS>BOND
     1    1    2      ar
     2    1    3      ar
     3    1    4      ar
     4    1    5       1
     5    5    6       1
     6    6    7      ar
     7    6    8      ar
     8    6    9       1
     9    9   10       1
    10   10   11       1
    11   11   12       1
    12   11   13       1
    13   12   17       1
    14   13   14       1
    15   13   15       1
    16   15   16       1
    17   15   17       1
    18   17   18       1
    19   18   19       1
    20   18   28       1
    21   19   20       2
    22   20   21       1
    23   21   22       1
    24   21   28       2
    25   22   23       2
    26   22   24       1
    27   24   25       1
    28   25   26       1
    29   25   27       2
    30   27   28       1
    31   26   40       1
    32   26   39       1
    33   24   38       1
    34   10   29       1
    35   10   30       1
    36   11   31       1
    37   13   32       1
    38   14   33       1
    39   15   34       1
    40   16   35       1
    41   17   36       1
    42   19   37       1
@<TRIPOS>SUBSTRUCTURE
     1 GDP378      1 GROUP             4 A     GDP     0 **** GDP A 378
