@<TRIPOS>MOLECULE
4uym_VOR_1_ligand
   40    42     1     0     0
SMALL
NO_CHARGES


@<TRIPOS>ATOM
     1 F1         135.1690   196.9980     6.4980 F            1 VOR590   0.0000
     2 F2         136.5640   200.2430     4.3560 F            1 VOR590   0.0000
     3 F3         133.9470   192.4400     6.8870 F            1 VOR590   0.0000
     4 O4         136.1930   196.1750     2.3690 O.3          1 VOR590   0.0000
     5 N5         133.4870   196.8740     3.2030 N.pl3        1 VOR590   0.0000
     6 N6         138.4770   197.8770     2.3180 N.ar         1 VOR590   0.0000
     7 N7         132.2690   197.4060     3.6440 N.2          1 VOR590   0.0000
     8 N8         131.9570   195.4710     2.6470 N.2          1 VOR590   0.0000
     9 N9         138.7500   200.0620     1.5160 N.ar         1 VOR590   1.0000
    10 C10        135.8630   196.6660     3.6730 C.3          1 VOR590   0.0000
    11 C11        137.0770   197.3560     4.2840 C.3          1 VOR590   0.0000
    12 C12        134.6850   197.6270     3.5720 C.3          1 VOR590   0.0000
    13 C13        135.4230   195.5260     4.5420 C.ar         1 VOR590   0.0000
    14 C14        138.1360   196.3480     4.7150 C.3          1 VOR590   0.0000
    15 C15        137.6600   198.3020     3.3050 C.ar         1 VOR590   0.0000
    16 C16        135.0260   195.7770     5.9520 C.ar         1 VOR590   0.0000
    17 C17        135.2230   194.2610     4.0040 C.ar         1 VOR590   0.0000
    18 C18        137.3710   199.7560     3.3970 C.ar         1 VOR590   0.0000
    19 C19        134.5500   194.7160     6.7120 C.ar         1 VOR590   0.0000
    20 C20        134.7380   193.2350     4.8060 C.ar         1 VOR590   0.0000
    21 C21        133.2930   195.6710     2.6570 C.2          1 VOR590   0.0000
    22 C22        134.4090   193.4580     6.1390 C.ar         1 VOR590   0.0000
    23 C23        137.9600   200.5900     2.4560 C.ar         1 VOR590   0.0000
    24 C24        139.0000   198.7490     1.4480 C.ar         1 VOR590   0.0000
    25 C25        131.3370   196.5150     3.2420 C.2          1 VOR590   0.0000
    26 H1         137.1450   196.3984     2.1598 H            1 VOR590   0.0000
    27 H2         136.7804   197.8711     5.0882 H            1 VOR590   0.0000
    28 H3         134.5410   198.0749     4.4544 H            1 VOR590   0.0000
    29 H4         134.8748   198.3180     2.8745 H            1 VOR590   0.0000
    30 H5         138.9163   196.8327     5.1103 H            1 VOR590   0.0000
    31 H6         137.7482   195.7282     5.3972 H            1 VOR590   0.0000
    32 H7         138.4384   195.8218     3.9202 H            1 VOR590   0.0000
    33 H8         135.4278   194.0888     3.0405 H            1 VOR590   0.0000
    34 H9         134.3087   194.8577     7.6720 H            1 VOR590   0.0000
    35 H10        134.6235   192.3204     4.4181 H            1 VOR590   0.0000
    36 H11        133.9961   195.0436     2.3224 H            1 VOR590   0.0000
    37 H12        137.7948   201.5759     2.4813 H            1 VOR590   0.0000
    38 H13        139.5978   198.4080     0.7225 H            1 VOR590   0.0000
    39 H14        130.3492   196.6116     3.3644 H            1 VOR590   0.0000
    40 H15        139.1686   200.6689     0.8404 H            1 VOR590   0.0000
@<TRIPOS>BOND
     1    1   16       1
     2    2   18       1
     3    3   22       1
     4    4   10       1
     5    5    7       1
     6    5   12       1
     7    5   21       1
     8    6   15      ar
     9    6   24      ar
    10    7   25       2
    11    8   21       2
    12    8   25       1
    13    9   23      ar
    14    9   24      ar
    15   10   11       1
    16   10   12       1
    17   10   13       1
    18   11   14       1
    19   11   15       1
    20   13   16      ar
    21   13   17      ar
    22   15   18      ar
    23   16   19      ar
    24   17   20      ar
    25   18   23      ar
    26   19   22      ar
    27   20   22      ar
    28    4   26       1
    29   11   27       1
    30   12   28       1
    31   12   29       1
    32   14   30       1
    33   14   31       1
    34   14   32       1
    35   17   33       1
    36   19   34       1
    37   20   35       1
    38   21   36       1
    39   23   37       1
    40   24   38       1
    41   25   39       1
    42    9   40       1
@<TRIPOS>SUBSTRUCTURE
     1 VOR590      1 GROUP             4 A     VOR     0 **** VOR A 590
