@<TRIPOS>MOLECULE
2ivn_ANP_1_ligand
   44    46     1     0     0
SMALL
NO_CHARGES


@<TRIPOS>ATOM
     1 PG           6.1440    64.6610     6.8400 P.3          1 ANP1327   0.0000
     2 O1G          4.9270    65.3540     6.2790 O.co2        1 ANP1327   0.0000
     3 O2G          7.3200    64.6380     5.8920 O.co2        1 ANP1327  -1.0000
     4 O3G          6.5150    65.0880     8.2410 O.co2        1 ANP1327  -1.0000
     5 PB           6.3750    61.8750     8.0650 P.3          1 ANP1327   0.0000
     6 O1B          7.8660    61.9500     7.8400 O.co2        1 ANP1327   0.0000
     7 O2B          5.8580    62.1400     9.4530 O.co2        1 ANP1327  -1.0000
     8 N3B          5.6070    63.0010     6.9740 N.3          1 ANP1327   0.0000
     9 PA           4.3730    59.9380     7.4960 P.3          1 ANP1327   0.0000
    10 O1A          4.3560    58.4750     7.1200 O.co2        1 ANP1327   0.0000
    11 O2A          3.6530    60.9370     6.6220 O.co2        1 ANP1327  -1.0000
    12 O3A          5.9180    60.3790     7.6570 O.3          1 ANP1327   0.0000
    13 O5'          3.7870    60.0780     8.9900 O.3          1 ANP1327   0.0000
    14 C5'          4.3350    59.3150    10.0610 C.3          1 ANP1327   0.0000
    15 C4'          3.9070    59.9530    11.3760 C.3          1 ANP1327   0.0000
    16 O4'          2.4940    59.7740    11.5430 O.3          1 ANP1327   0.0000
    17 C3'          4.5920    59.2910    12.5630 C.3          1 ANP1327   0.0000
    18 O3'          4.9310    60.2930    13.5300 O.3          1 ANP1327   0.0000
    19 C2'          3.5210    58.3740    13.1150 C.3          1 ANP1327   0.0000
    20 O2'          3.6850    58.0720    14.5100 O.3          1 ANP1327   0.0000
    21 C1'          2.2620    59.1780    12.8200 C.3          1 ANP1327   0.0000
    22 N9           1.0710    58.3020    12.8690 N.pl3        1 ANP1327   0.0000
    23 C8           0.7830    57.2600    12.0610 C.2          1 ANP1327   0.0000
    24 N7          -0.3860    56.6740    12.4270 N.2          1 ANP1327   0.0000
    25 C5          -0.8580    57.3510    13.4930 C.ar         1 ANP1327   0.0000
    26 C6          -2.0430    57.2700    14.3820 C.ar         1 ANP1327   0.0000
    27 N6          -2.9880    56.3170    14.1960 N.pl3        1 ANP1327   0.0000
    28 N1          -2.1440    58.1740    15.3860 N.ar         1 ANP1327   0.0000
    29 C2          -1.2160    59.1330    15.5890 C.ar         1 ANP1327   0.0000
    30 N3          -0.1160    59.2660    14.8210 N.ar         1 ANP1327   0.0000
    31 C4           0.1100    58.4200    13.7810 C.ar         1 ANP1327   0.0000
    32 H3B          5.6860    62.6049     6.0592 H            1 ANP1327   0.0000
    33 H5'1         5.3329    59.3114     9.9967 H            1 ANP1327   0.0000
    34 H5'2         3.9946    58.3758    10.0150 H            1 ANP1327   0.0000
    35 H4'          4.1238    60.9291    11.3632 H            1 ANP1327   0.0000
    36 H3'          5.3992    58.7754    12.2756 H            1 ANP1327   0.0000
    37 H6           5.7504    60.0109    14.0291 H            1 ANP1327   0.0000
    38 H2'          3.5054    57.5238    12.5887 H            1 ANP1327   0.0000
    39 H8           4.6572    58.0918    14.7433 H            1 ANP1327   0.0000
    40 H1'          2.1662    59.8996    13.5056 H            1 ANP1327   0.0000
    41 H10          1.3533    56.9601    11.2963 H            1 ANP1327   0.0000
    42 H11         -3.7815    56.2745    14.8031 H            1 ANP1327   0.0000
    43 H12         -2.8920    55.6562    13.4516 H            1 ANP1327   0.0000
    44 H13         -1.3507    59.7746    16.3441 H            1 ANP1327   0.0000
@<TRIPOS>BOND
     1    1    2      ar
     2    1    3      ar
     3    1    4      ar
     4    1    8       1
     5    5    6      ar
     6    5    7      ar
     7    5    8       1
     8    5   12       1
     9    9   10      ar
    10    9   11      ar
    11    9   12       1
    12    9   13       1
    13   13   14       1
    14   14   15       1
    15   15   16       1
    16   15   17       1
    17   16   21       1
    18   17   18       1
    19   17   19       1
    20   19   20       1
    21   19   21       1
    22   21   22       1
    23   22   23       1
    24   22   31       1
    25   23   24       2
    26   24   25       1
    27   25   26      ar
    28   25   31      ar
    29   26   27       1
    30   26   28      ar
    31   28   29      ar
    32   29   30      ar
    33   30   31      ar
    34   29   44       1
    35   27   43       1
    36   27   42       1
    37    8   32       1
    38   23   41       1
    39   14   33       1
    40   14   34       1
    41   15   35       1
    42   17   36       1
    43   18   37       1
    44   19   38       1
    45   20   39       1
    46   21   40       1
@<TRIPOS>SUBSTRUCTURE
     1 ANP1327     1 GROUP             4 A     ANP     0 **** ANP A1327
