@<TRIPOS>MOLECULE
4ki8_ADP_2_ligand
   39    41     1     0     0
SMALL
NO_CHARGES


@<TRIPOS>ATOM
     1 PB         302.1230    23.8100   299.3650 P.3          1 ADP601   0.0000
     2 O1B        302.9370    24.8310   298.6040 O.co2        1 ADP601   0.0000
     3 O2B        300.8000    24.3910   299.7590 O.co2        1 ADP601  -1.0000
     4 O3B        302.8050    23.1740   300.5710 O.co2        1 ADP601  -1.0000
     5 PA         300.3260    22.2340   297.9550 P.3          1 ADP601   0.0000
     6 O1A        300.2150    20.9550   297.1210 O.co2        1 ADP601   0.0000
     7 O2A        299.4320    22.3900   299.1920 O.co2        1 ADP601  -1.0000
     8 O3A        301.8430    22.6140   298.3200 O.3          1 ADP601   0.0000
     9 O5'        300.0260    23.4040   296.9000 O.3          1 ADP601   0.0000
    10 C5'        299.1340    24.4660   297.1790 C.3          1 ADP601   0.0000
    11 C4'        298.9620    25.2550   295.9010 C.3          1 ADP601   0.0000
    12 O4'        298.0010    24.5860   295.0700 O.3          1 ADP601   0.0000
    13 C3'        298.4380    26.6530   296.1830 C.3          1 ADP601   0.0000
    14 O3'        299.2220    27.5690   295.4110 O.3          1 ADP601   0.0000
    15 C2'        296.9940    26.6020   295.7190 C.3          1 ADP601   0.0000
    16 O2'        296.4750    27.8290   295.1790 O.3          1 ADP601   0.0000
    17 C1'        297.0520    25.5610   294.6170 C.3          1 ADP601   0.0000
    18 N9         295.7000    25.0230   294.3170 N.pl3        1 ADP601   0.0000
    19 C8         294.8310    24.3970   295.1470 C.2          1 ADP601   0.0000
    20 N7         293.6770    24.0720   294.4780 N.2          1 ADP601   0.0000
    21 C5         293.8100    24.5050   293.2090 C.ar         1 ADP601   0.0000
    22 C6         292.9800    24.4770   291.9930 C.ar         1 ADP601   0.0000
    23 N6         291.7550    23.9100   292.0310 N.pl3        1 ADP601   0.0000
    24 N1         293.4890    25.0370   290.8720 N.ar         1 ADP601   0.0000
    25 C2         294.7170    25.6010   290.8600 C.ar         1 ADP601   0.0000
    26 N3         295.5330    25.6500   291.9350 N.ar         1 ADP601   0.0000
    27 C4         295.1350    25.1290   293.1150 C.ar         1 ADP601   0.0000
    28 H5'1       299.5130    25.0523   297.8949 H            1 ADP601   0.0000
    29 H5'2       298.2518    24.1024   297.4782 H            1 ADP601   0.0000
    30 H4'        299.8377    25.3143   295.4218 H            1 ADP601   0.0000
    31 H3'        298.4938    26.8668   297.1583 H            1 ADP601   0.0000
    32 H5         298.9015    28.5020   295.5744 H            1 ADP601   0.0000
    33 H2'        296.4073    26.2805   296.4623 H            1 ADP601   0.0000
    34 H7         296.5230    28.5459   295.8745 H            1 ADP601   0.0000
    35 H1'        297.4118    25.9938   293.7904 H            1 ADP601   0.0000
    36 H9         295.0057    24.1994   296.1116 H            1 ADP601   0.0000
    37 H10        291.1881    23.8888   291.2075 H            1 ADP601   0.0000
    38 H11        291.4148    23.5113   292.8826 H            1 ADP601   0.0000
    39 H12        295.0405    26.0059   290.0048 H            1 ADP601   0.0000
@<TRIPOS>BOND
     1    1    2      ar
     2    1    3      ar
     3    1    4      ar
     4    1    8       1
     5    5    6      ar
     6    5    7      ar
     7    5    8       1
     8    5    9       1
     9    9   10       1
    10   10   11       1
    11   11   12       1
    12   11   13       1
    13   12   17       1
    14   13   14       1
    15   13   15       1
    16   15   16       1
    17   15   17       1
    18   17   18       1
    19   18   19       1
    20   18   27       1
    21   19   20       2
    22   20   21       1
    23   21   22      ar
    24   21   27      ar
    25   22   23       1
    26   22   24      ar
    27   24   25      ar
    28   25   26      ar
    29   26   27      ar
    30   25   39       1
    31   23   38       1
    32   23   37       1
    33   10   28       1
    34   10   29       1
    35   11   30       1
    36   13   31       1
    37   14   32       1
    38   15   33       1
    39   16   34       1
    40   17   35       1
    41   19   36       1
@<TRIPOS>SUBSTRUCTURE
     1 ADP601      1 GROUP             4 B     ADP     0 **** ADP B 601
