@<TRIPOS>MOLECULE
3h3j_NAD_1_ligand
   70    74     1     0     0
SMALL
NO_CHARGES


@<TRIPOS>ATOM
     1 PA         -33.9720    -8.1240    -5.5140 P.3          1 NAD500   0.0000
     2 O1A        -34.4530    -8.3580    -4.1090 O.co2        1 NAD500   0.0000
     3 O2A        -34.4240    -6.8990    -6.2100 O.co2        1 NAD500  -1.0000
     4 O5B        -34.3540    -9.3800    -6.3730 O.3          1 NAD500   0.0000
     5 C5B        -34.0400   -10.7080    -6.0070 C.3          1 NAD500   0.0000
     6 C4B        -34.9250   -11.6430    -6.8300 C.3          1 NAD500   0.0000
     7 O4B        -34.4830   -13.0090    -6.6150 O.3          1 NAD500   0.0000
     8 C3B        -36.4080   -11.5890    -6.3660 C.3          1 NAD500   0.0000
     9 O3B        -37.2780   -11.4790    -7.5000 O.3          1 NAD500   0.0000
    10 C2B        -36.6070   -12.9550    -5.7290 C.3          1 NAD500   0.0000
    11 O2B        -37.9490   -13.4060    -5.9060 O.3          1 NAD500   0.0000
    12 C1B        -35.6990   -13.7650    -6.6260 C.3          1 NAD500   0.0000
    13 N9A        -35.4870   -15.0850    -6.0660 N.pl3        1 NAD500   0.0000
    14 C8A        -35.0970   -15.3210    -4.6820 C.2          1 NAD500   0.0000
    15 N7A        -35.0180   -16.7790    -4.6730 N.2          1 NAD500   0.0000
    16 C5A        -35.3480   -17.2530    -5.8620 C.ar         1 NAD500   0.0000
    17 C6A        -35.3980   -18.5450    -6.3230 C.ar         1 NAD500   0.0000
    18 N6A        -35.1270   -19.5220    -5.4640 N.pl3        1 NAD500   0.0000
    19 N1A        -35.7650   -18.8460    -7.6310 N.ar         1 NAD500   0.0000
    20 C2A        -36.1190   -17.8070    -8.6310 C.ar         1 NAD500   0.0000
    21 N3A        -35.9980   -16.4580    -8.0650 N.ar         1 NAD500   0.0000
    22 C4A        -35.6220   -16.2180    -6.7260 C.ar         1 NAD500   0.0000
    23 O3         -32.3680    -8.2680    -5.4850 O.3          1 NAD500   0.0000
    24 PN         -31.4090    -7.5270    -6.5710 P.3          1 NAD500   0.0000
    25 O1N        -31.2430    -6.1300    -6.1980 O.co2        1 NAD500   0.0000
    26 O2N        -31.9530    -7.8420    -7.9250 O.co2        1 NAD500  -1.0000
    27 O5D        -30.0520    -8.3470    -6.3210 O.3          1 NAD500   0.0000
    28 C5D        -29.9200    -9.6700    -6.7610 C.3          1 NAD500   0.0000
    29 C4D        -28.5420   -10.2070    -6.3730 C.3          1 NAD500   0.0000
    30 O4D        -27.5580    -9.4970    -7.1530 O.3          1 NAD500   0.0000
    31 C3D        -28.1910    -9.9260    -4.8980 C.3          1 NAD500   0.0000
    32 O3D        -27.4310   -11.0110    -4.4260 O.3          1 NAD500   0.0000
    33 C2D        -27.2540    -8.7550    -4.9990 C.3          1 NAD500   0.0000
    34 O2D        -26.3220    -8.7790    -3.9080 O.3          1 NAD500   0.0000
    35 C1D        -26.5080    -9.1650    -6.2630 C.3          1 NAD500   0.0000
    36 N1N        -25.8260    -8.0190    -6.8930 N.ar         1 NAD500   1.0000
    37 C2N        -24.6230    -8.2310    -7.5410 C.ar         1 NAD500   0.0000
    38 C3N        -23.9750    -7.1780    -8.1460 C.ar         1 NAD500   0.0000
    39 C7N        -22.6680    -7.4450    -8.8570 C.2          1 NAD500   0.0000
    40 O7N        -21.9350    -6.4340    -9.3490 O.2          1 NAD500   0.0000
    41 N7N        -22.3550    -8.7250    -9.0880 N.am         1 NAD500   0.0000
    42 C4N        -24.5180    -5.8880    -8.1270 C.ar         1 NAD500   0.0000
    43 C5N        -25.7430    -5.6890    -7.4950 C.ar         1 NAD500   0.0000
    44 C6N        -26.4040    -6.7450    -6.8870 C.ar         1 NAD500   0.0000
    45 H5B1       -34.2173   -10.8428    -5.0321 H            1 NAD500   0.0000
    46 H5B2       -33.0767   -10.8949    -6.1996 H            1 NAD500   0.0000
    47 H4B        -34.8605   -11.4104    -7.8004 H            1 NAD500   0.0000
    48 H3B        -36.5623   -10.8503    -5.7099 H            1 NAD500   0.0000
    49 H5         -37.1503   -12.2716    -8.0962 H            1 NAD500   0.0000
    50 H2B        -36.3186   -12.9769    -4.7717 H            1 NAD500   0.0000
    51 H7         -38.1519   -13.4733    -6.8829 H            1 NAD500   0.0000
    52 H1B        -36.0731   -13.8258    -7.5514 H            1 NAD500   0.0000
    53 H8A        -34.9300   -14.6669    -3.9442 H            1 NAD500   0.0000
    54 H6A1       -35.1541   -20.4750    -5.7658 H            1 NAD500   0.0000
    55 H6A2       -34.8960   -19.3042    -4.5157 H            1 NAD500   0.0000
    56 H2A        -36.4034   -18.0014    -9.5698 H            1 NAD500   0.0000
    57 H5D1       -30.0210    -9.7013    -7.7554 H            1 NAD500   0.0000
    58 H5D2       -30.6282   -10.2338    -6.3361 H            1 NAD500   0.0000
    59 H4D        -28.4885   -11.1879    -6.5598 H            1 NAD500   0.0000
    60 H3D        -28.9946    -9.7365    -4.3339 H            1 NAD500   0.0000
    61 H17        -27.1879   -10.8562    -3.4684 H            1 NAD500   0.0000
    62 H2D        -27.7287    -7.8796    -5.0902 H            1 NAD500   0.0000
    63 H19        -26.4173    -7.9416    -3.3697 H            1 NAD500   0.0000
    64 H1D        -25.8886    -9.9339    -6.1045 H            1 NAD500   0.0000
    65 H2N        -24.2245    -9.1477    -7.5701 H            1 NAD500   0.0000
    66 H7N1       -21.5012    -8.9545    -9.5552 H            1 NAD500   0.0000
    67 H7N2       -22.9749    -9.4523    -8.7934 H            1 NAD500   0.0000
    68 H4N        -24.0363    -5.1251    -8.5583 H            1 NAD500   0.0000
    69 H5N        -26.1497    -4.7756    -7.4797 H            1 NAD500   0.0000
    70 H6N        -27.2894    -6.5969    -6.4464 H            1 NAD500   0.0000
@<TRIPOS>BOND
     1    1    2      ar
     2    1    3      ar
     3    1    4       1
     4    1   23       1
     5    4    5       1
     6    5    6       1
     7    6    7       1
     8    6    8       1
     9    7   12       1
    10    8    9       1
    11    8   10       1
    12   10   11       1
    13   10   12       1
    14   12   13       1
    15   13   14       1
    16   13   22       1
    17   14   15       2
    18   15   16       1
    19   16   17      ar
    20   16   22      ar
    21   17   18       1
    22   17   19      ar
    23   19   20      ar
    24   20   21      ar
    25   21   22      ar
    26   23   24       1
    27   24   25      ar
    28   24   26      ar
    29   24   27       1
    30   27   28       1
    31   28   29       1
    32   29   30       1
    33   29   31       1
    34   30   35       1
    35   31   32       1
    36   31   33       1
    37   33   34       1
    38   33   35       1
    39   35   36       1
    40   36   37      ar
    41   36   44      ar
    42   37   38      ar
    43   38   39       1
    44   38   42      ar
    45   39   40       2
    46   39   41      am
    47   42   43      ar
    48   43   44      ar
    49   44   70       1
    50    5   45       1
    51    5   46       1
    52    6   47       1
    53    8   48       1
    54    9   49       1
    55   10   50       1
    56   11   51       1
    57   12   52       1
    58   14   53       1
    59   18   54       1
    60   18   55       1
    61   20   56       1
    62   43   69       1
    63   28   57       1
    64   28   58       1
    65   29   59       1
    66   31   60       1
    67   32   61       1
    68   33   62       1
    69   34   63       1
    70   35   64       1
    71   37   65       1
    72   41   66       1
    73   41   67       1
    74   42   68       1
@<TRIPOS>SUBSTRUCTURE
     1 NAD500      1 GROUP             4 A     NAD     0 **** NAD A 500
