@<TRIPOS>MOLECULE
4u9z_COA_1_ligand
   80    82     1     0     0
SMALL
NO_CHARGES


@<TRIPOS>ATOM
     1 N1A          1.4200     3.3800    33.6700 N.ar         1 COA201   0.0000
     2 C2A          0.8740     4.5850    33.4470 C.ar         1 COA201   0.0000
     3 N3A          1.1700     5.3300    32.3690 N.ar         1 COA201   0.0000
     4 C4A          2.0560     4.8660    31.4470 C.ar         1 COA201   0.0000
     5 C5A          2.6910     3.5540    31.6200 C.ar         1 COA201   0.0000
     6 C6A          2.3110     2.8050    32.8340 C.ar         1 COA201   0.0000
     7 N6A          2.8350     1.5840    33.0660 N.pl3        1 COA201   0.0000
     8 N7A          3.5110     3.3570    30.5670 N.2          1 COA201   0.0000
     9 C8A          3.4080     4.4590    29.7780 C.2          1 COA201   0.0000
    10 N9A          2.5330     5.3490    30.3100 N.pl3        1 COA201   0.0000
    11 C1B          2.1560     6.6740    29.7770 C.3          1 COA201   0.0000
    12 C2B          2.5150     7.7210    30.8040 C.3          1 COA201   0.0000
    13 O2B          1.8230     8.9450    30.5150 O.3          1 COA201   0.0000
    14 C3B          3.9800     7.8990    30.4970 C.3          1 COA201   0.0000
    15 O3B          4.4340     9.1290    30.9840 O.3          1 COA201   0.0000
    16 P3B          5.1200     9.2000    32.4450 P.3          1 COA201   0.0000
    17 O7A          5.5700    10.6430    32.4740 O.co2        1 COA201   0.0000
    18 O8A          6.2150     8.1680    32.4550 O.co2        1 COA201  -1.0000
    19 O9A          4.0120     8.8100    33.3990 O.co2        1 COA201  -1.0000
    20 C4B          3.9910     7.8660    28.9760 C.3          1 COA201   0.0000
    21 O4B          2.9740     6.9230    28.6460 O.3          1 COA201   0.0000
    22 C5B          5.3430     7.4400    28.4280 C.3          1 COA201   0.0000
    23 O5B          5.4310     7.7900    27.0460 O.3          1 COA201   0.0000
    24 P1A          6.3990     6.8790    26.1620 P.3          1 COA201   0.0000
    25 O1A          6.6060     7.5700    24.8480 O.co2        1 COA201   0.0000
    26 O2A          7.6020     6.4030    26.9630 O.co2        1 COA201  -1.0000
    27 O3A          5.3870     5.6570    25.9520 O.3          1 COA201   0.0000
    28 P2A          5.7260     4.0830    25.7850 P.3          1 COA201   0.0000
    29 O4A          6.9360     3.8400    24.9240 O.co2        1 COA201   0.0000
    30 O5A          5.6600     3.4360    27.1520 O.co2        1 COA201  -1.0000
    31 O6A          4.4200     3.6460    24.9420 O.3          1 COA201   0.0000
    32 CBP          2.3680     2.3740    25.1980 C.3          1 COA201   0.0000
    33 CCP          3.1250     3.6630    25.5530 C.3          1 COA201   0.0000
    34 CDP          0.9290     2.4570    25.6700 C.3          1 COA201   0.0000
    35 CEP          2.3970     2.1430    23.6910 C.3          1 COA201   0.0000
    36 CAP          3.0550     1.2250    25.9370 C.3          1 COA201   0.0000
    37 OAP          3.1060     1.5550    27.3300 O.3          1 COA201   0.0000
    38 C9P          2.3930    -0.1260    25.7680 C.2          1 COA201   0.0000
    39 O9P          2.7790    -0.8680    24.9000 O.2          1 COA201   0.0000
    40 N8P          1.4310    -0.5120    26.6060 N.am         1 COA201   0.0000
    41 C7P          0.9970    -1.9040    26.6620 C.3          1 COA201   0.0000
    42 C6P         -0.1700    -2.1850    25.7220 C.3          1 COA201   0.0000
    43 C5P         -1.0960    -0.9820    25.6730 C.2          1 COA201   0.0000
    44 O5P         -1.8130    -0.6950    26.6170 O.2          1 COA201   0.0000
    45 N4P         -1.0970    -0.2400    24.5670 N.am         1 COA201   0.0000
    46 C3P         -2.2150    -0.2730    23.6550 C.3          1 COA201   0.0000
    47 C2P         -3.2310     0.8240    23.8820 C.3          1 COA201   0.0000
    48 S1P         -4.8480     0.0390    23.7630 S.3          1 COA201   0.0000
    49 H2A          0.2187     4.9440    34.1116 H            1 COA201   0.0000
    50 H6A1         3.4926     1.1917    32.4228 H            1 COA201   0.0000
    51 H6A2         2.5659     1.0711    33.8812 H            1 COA201   0.0000
    52 H8A          3.9084     4.5951    28.9229 H            1 COA201   0.0000
    53 H1B          1.1849     6.7107    29.5413 H            1 COA201   0.0000
    54 H2B          2.3575     7.4062    31.7400 H            1 COA201   0.0000
    55 H7           2.0648     9.6340    31.1983 H            1 COA201   0.0000
    56 H3B          4.5179     7.1452    30.8743 H            1 COA201   0.0000
    57 H4B          3.7478     8.7666    28.6157 H            1 COA201   0.0000
    58 H5B1         5.4459     6.4504    28.5280 H            1 COA201   0.0000
    59 H5B2         6.0691     7.9036    28.9357 H            1 COA201   0.0000
    60 HCP1         2.6106     4.4531    25.2197 H            1 COA201   0.0000
    61 HCP2         3.2267     3.7261    26.5458 H            1 COA201   0.0000
    62 HDP1         0.4508     1.6117    25.4317 H            1 COA201   0.0000
    63 HDP2         0.9103     2.5823    26.6619 H            1 COA201   0.0000
    64 HDP3         0.4772     3.2317    25.2275 H            1 COA201   0.0000
    65 HEP1         1.9016     1.3021    23.4731 H            1 COA201   0.0000
    66 HEP2         1.9631     2.9153    23.2270 H            1 COA201   0.0000
    67 HEP3         3.3453     2.0601    23.3847 H            1 COA201   0.0000
    68 HAP          3.9937     1.1555    25.5995 H            1 COA201   0.0000
    69 H21          3.9537     2.0484    27.5249 H            1 COA201   0.0000
    70 H8P          1.0002     0.1626    27.2054 H            1 COA201   0.0000
    71 H7P1         0.7142    -2.1152    27.5976 H            1 COA201   0.0000
    72 H7P2         1.7650    -2.4908    26.4054 H            1 COA201   0.0000
    73 H6P1        -0.6775    -2.9808    26.0523 H            1 COA201   0.0000
    74 H6P2         0.1809    -2.3709    24.8042 H            1 COA201   0.0000
    75 H4P         -0.3131     0.3475    24.3660 H            1 COA201   0.0000
    76 H3P1        -2.6767    -1.1542    23.7562 H            1 COA201   0.0000
    77 H3P2        -1.8626    -0.1864    22.7232 H            1 COA201   0.0000
    78 H2P1        -3.1374     1.5337    23.1837 H            1 COA201   0.0000
    79 H2P2        -3.1077     1.2293    24.7878 H            1 COA201   0.0000
    80 H1P         -5.1644     0.0695    22.8149 H            1 COA201   0.0000
@<TRIPOS>BOND
     1    1    2      ar
     2    1    6      ar
     3    2    3      ar
     4    3    4      ar
     5    4    5      ar
     6    4   10       1
     7    5    6      ar
     8    5    8       1
     9    6    7       1
    10    8    9       2
    11    9   10       1
    12   10   11       1
    13   11   12       1
    14   11   21       1
    15   12   13       1
    16   12   14       1
    17   14   15       1
    18   14   20       1
    19   15   16       1
    20   16   17      ar
    21   16   18      ar
    22   16   19      ar
    23   20   21       1
    24   20   22       1
    25   22   23       1
    26   23   24       1
    27   24   25      ar
    28   24   26      ar
    29   24   27       1
    30   27   28       1
    31   28   29      ar
    32   28   30      ar
    33   28   31       1
    34   31   33       1
    35   32   33       1
    36   32   34       1
    37   32   35       1
    38   32   36       1
    39   36   37       1
    40   36   38       1
    41   38   39       2
    42   38   40      am
    43   40   41       1
    44   41   42       1
    45   42   43       1
    46   43   44       2
    47   43   45      am
    48   45   46       1
    49   46   47       1
    50   47   48       1
    51    2   49       1
    52    7   50       1
    53    7   51       1
    54    9   52       1
    55   11   53       1
    56   12   54       1
    57   13   55       1
    58   14   56       1
    59   48   80       1
    60   47   79       1
    61   20   57       1
    62   22   58       1
    63   22   59       1
    64   47   78       1
    65   46   77       1
    66   33   60       1
    67   33   61       1
    68   34   62       1
    69   34   63       1
    70   34   64       1
    71   35   65       1
    72   35   66       1
    73   35   67       1
    74   36   68       1
    75   37   69       1
    76   40   70       1
    77   41   71       1
    78   41   72       1
    79   42   73       1
    80   42   74       1
    81   45   75       1
    82   46   76       1
@<TRIPOS>SUBSTRUCTURE
     1 COA201      1 GROUP             4 A     COA     0 **** COA A 201
