@<TRIPOS>MOLECULE
./coach420/3ek5/ligand.pdb
 63 64 0 0 0
SMALL
GASTEIGER

@<TRIPOS>ATOM
      1  PG       -28.1550   -2.3730   -3.8140 P.3   2004  GTP2004     0.5373
      2  O1G      -29.5070   -1.8020   -3.3780 O.3   2004  GTP2004    -0.1143
      3  O2G      -28.2370   -3.2830   -5.0410 O.2   2004  GTP2004    -0.2221
      4  O3G      -27.3310   -2.9390   -2.6710 O.3   2004  GTP2004    -0.1143
      5  O3B      -27.5820   -0.8820   -4.1560 O.3   2004  GTP2004    -0.2258
      6  PB       -26.5630   -0.5560   -5.3760 P.3   2004  GTP2004     0.2277
      7  O1B      -27.1220   -1.3660   -6.5370 O.2   2004  GTP2004    -0.5168
      8  O2B      -26.9810    0.8960   -5.1800 O.3   2004  GTP2004    -0.4368
      9  O3A      -25.2680   -1.4000   -4.9130 O.3   2004  GTP2004    -0.2700
     10  PA       -23.6880   -0.9230   -4.4440 P.3   2004  GTP2004     0.2189
     11  O1A      -22.6960   -1.0270   -5.5780 O.2   2004  GTP2004    -0.5170
     12  O2A      -23.6210    0.3140   -3.5680 O.3   2004  GTP2004    -0.4371
     13  O5'      -23.1370   -1.9600   -3.7840 O.3   2004  GTP2004    -0.3112
     14  C5'      -23.7230   -2.9340   -2.9170 C.3   2004  GTP2004     0.1813
     15  C4'      -22.9490   -3.1280   -1.6020 C.3   2004  GTP2004     0.1801
     16  O4'      -21.5250   -2.9890   -1.7290 O.3   2004  GTP2004    -0.3306
     17  C3'      -23.3720   -2.1300   -0.5430 C.3   2004  GTP2004     0.2161
     18  O3'      -23.6150   -2.8550    0.6630 O.3   2004  GTP2004    -0.2175
     19  C2'      -22.1990   -1.1890   -0.3530 C.3   2004  GTP2004     0.2337
     20  O2'      -22.1300   -0.8600    1.0320 O.3   2004  GTP2004    -0.2155
     21  C1'      -21.0230   -2.0580   -0.7510 C.3   2004  GTP2004     0.2409
     22  N9       -19.7720   -1.3670   -1.1910 N.ar  2004  GTP2004    -0.2693
     23  C8       -19.5490   -0.6490   -2.3000 C.ar  2004  GTP2004     0.1817
     24  N7       -18.2590   -0.2100   -2.3170 N.ar  2004  GTP2004    -0.2173
     25  C5       -17.6590   -0.6630   -1.1970 C.ar  2004  GTP2004     0.1748
     26  C6       -16.3730   -0.5480   -0.6630 C.ar  2004  GTP2004     0.3023
     27  O6       -15.4930    0.0970   -1.2640 O.2   2004  GTP2004    -0.2633
     28  N1       -16.0670   -1.1470    0.5100 N.ar  2004  GTP2004    -0.1709
     29  C2       -17.0130   -1.8560    1.1750 C.ar  2004  GTP2004     0.2606
     30  N2       -16.7260   -2.4660    2.3520 N.pl3 2004  GTP2004    -0.0859
     31  N3       -18.2710   -1.9740    0.6840 N.ar  2004  GTP2004    -0.1918
     32  C4       -18.6170   -1.3940   -0.5020 C.ar  2004  GTP2004     0.1723
     33  O1G      -28.2540    5.2180  -10.4250 O.3   2005  GTP2005     0.0000
     34  O2G      -27.2970    6.1090   -8.2300 O.3   2005  GTP2005     0.0000
     35  O3G      -26.7290    7.2430  -10.4550 O.3   2005  GTP2005     0.0000
     36  O3B      -25.8200    5.0360   -9.9540 O.2   2005  GTP2005    -0.2221
     37  PB       -25.0530    4.0210   -9.1290 P.3   2005  GTP2005     0.5373
     38  O1B      -26.0890    3.1190   -8.4830 O.3   2005  GTP2005    -0.1143
     39  O2B      -24.5720    3.6720  -10.5250 O.3   2005  GTP2005    -0.1143
     40  O3A      -24.2120    4.8880   -7.9710 O.3   2005  GTP2005    -0.2261
     41  PA       -22.8370    5.6930   -8.2860 P.3   2005  GTP2005     0.2231
     42  O1A      -21.6600    4.9860   -7.6270 O.3   2005  GTP2005    -0.4370
     43  O2A      -22.7780    6.0200   -9.7660 O.2   2005  GTP2005    -0.5169
     44  O5'      -23.0720    7.0590   -7.4570 O.3   2005  GTP2005    -0.3111
     45  C5'      -23.7610    8.1770   -8.0280 C.3   2005  GTP2005     0.1813
     46  C4'      -22.8620    9.4080   -7.9800 C.3   2005  GTP2005     0.1801
     47  O4'      -21.5620    9.0360   -7.5210 O.3   2005  GTP2005    -0.3306
     48  C3'      -22.6640   10.0200   -9.3560 C.3   2005  GTP2005     0.2161
     49  O3'      -22.9080   11.4240   -9.2140 O.3   2005  GTP2005    -0.2175
     50  C2'      -21.2220    9.6960   -9.7440 C.3   2005  GTP2005     0.2337
     51  O2'      -20.5930   10.7220  -10.5150 O.3   2005  GTP2005    -0.2155
     52  C1'      -20.5680    9.5950   -8.3850 C.3   2005  GTP2005     0.2409
     53  N9       -19.3070    8.8180   -8.2910 N.ar  2005  GTP2005    -0.2693
     54  C8       -19.1040    7.4910   -8.3610 C.ar  2005  GTP2005     0.1817
     55  N7       -17.7840    7.2420   -8.1790 N.ar  2005  GTP2005    -0.2173
     56  C5       -17.1670    8.4340   -7.9790 C.ar  2005  GTP2005     0.1748
     57  C6       -15.8540    8.8330   -7.7370 C.ar  2005  GTP2005     0.3023
     58  O6       -14.9210    8.0030   -7.6620 O.2   2005  GTP2005    -0.2633
     59  N1       -15.5890   10.1460   -7.5740 N.ar  2005  GTP2005    -0.1709
     60  C2       -16.5670   11.0830   -7.6420 C.ar  2005  GTP2005     0.2606
     61  N2       -16.2810   12.3960   -7.4720 N.pl3 2005  GTP2005    -0.0859
     62  N3       -17.8410   10.7230   -7.8810 N.ar  2005  GTP2005    -0.1918
     63  C4       -18.1470    9.4120   -8.0450 C.ar  2005  GTP2005     0.1723
@<TRIPOS>BOND
     1     1     3    2
     2     1     5    1
     3     1     2    1
     4     1     4    1
     5     5     6    1
     6     6     7    2
     7     6     8    1
     8     6     9    1
     9     9    10    1
    10    10    11    2
    11    10    13    1
    12    10    12    1
    13    13    14    1
    14    14    15    1
    15    15    16    1
    16    15    17    1
    17    16    21    1
    18    17    19    1
    19    17    18    1
    20    19    21    1
    21    19    20    1
    22    21    22    1
    23    22    23   ar
    24    22    32   ar
    25    23    24   ar
    26    24    25   ar
    27    25    26   ar
    28    25    32   ar
    29    26    27    2
    30    26    28   ar
    31    28    29   ar
    32    29    31   ar
    33    29    30    1
    34    31    32   ar
    35    36    37    2
    36    37    39    1
    37    37    38    1
    38    37    40    1
    39    40    41    1
    40    41    43    2
    41    41    42    1
    42    41    44    1
    43    44    45    1
    44    45    46    1
    45    46    48    1
    46    46    47    1
    47    47    52    1
    48    48    50    1
    49    48    49    1
    50    50    51    1
    51    50    52    1
    52    52    53    1
    53    53    54   ar
    54    53    63   ar
    55    54    55   ar
    56    55    56   ar
    57    56    63   ar
    58    56    57   ar
    59    57    58    2
    60    57    59   ar
    61    59    60   ar
    62    60    62   ar
    63    60    61    1
    64    62    63   ar
