@<TRIPOS>MOLECULE
2ptf_FMN_1_ligand
   50    52     1     0     0
SMALL
NO_CHARGES


@<TRIPOS>ATOM
     1 N1          17.0730    38.1760    21.5310 N.2          1 FMN301   0.0000
     2 C2          15.9600    38.7030    22.2070 C.2          1 FMN301   0.0000
     3 O2          15.3910    39.7310    21.8160 O.2          1 FMN301   0.0000
     4 N3          15.4530    38.0900    23.3230 N.pl3        1 FMN301   0.0000
     5 C4          16.0300    36.9510    23.8150 C.2          1 FMN301   0.0000
     6 O4          15.4090    36.3260    24.7010 O.2          1 FMN301   0.0000
     7 C4A         17.1400    36.4070    23.1750 C.2          1 FMN301   0.0000
     8 N5          17.7280    35.2430    23.6510 N.2          1 FMN301   0.0000
     9 C5A         18.8460    34.6930    23.0010 C.ar         1 FMN301   0.0000
    10 C6          19.4350    33.4990    23.4550 C.ar         1 FMN301   0.0000
    11 C7          20.5290    32.9570    22.7900 C.ar         1 FMN301   0.0000
    12 C7M         20.9420    31.5430    23.1580 C.3          1 FMN301   0.0000
    13 C8          21.0520    33.6260    21.6350 C.ar         1 FMN301   0.0000
    14 C8M         22.1940    33.1000    20.8060 C.3          1 FMN301   0.0000
    15 C9          20.4540    34.7920    21.1730 C.ar         1 FMN301   0.0000
    16 C9A         19.3560    35.3160    21.8510 C.ar         1 FMN301   0.0000
    17 N10         18.7700    36.4750    21.3880 N.pl3        1 FMN301   0.0000
    18 C10         17.6590    37.0270    22.0330 C.2          1 FMN301   0.0000
    19 C1'         19.4550    37.2330    20.3070 C.3          1 FMN301   0.0000
    20 C2'         18.6950    36.9510    19.0010 C.3          1 FMN301   0.0000
    21 O2'         18.5540    35.5730    18.6610 O.3          1 FMN301   0.0000
    22 C3'         19.4910    37.6570    17.9130 C.3          1 FMN301   0.0000
    23 O3'         19.2870    39.0290    18.0390 O.3          1 FMN301   0.0000
    24 C4'         19.0380    37.3030    16.5260 C.3          1 FMN301   0.0000
    25 O4'         20.0460    37.7270    15.6240 O.3          1 FMN301   0.0000
    26 C5'         17.7080    37.9700    16.2320 C.3          1 FMN301   0.0000
    27 O5'         17.5310    37.7950    14.8490 O.3          1 FMN301   0.0000
    28 P           16.1990    38.2190    14.0710 P.3          1 FMN301   0.0000
    29 O1P         16.5310    39.6020    13.5600 O.co2        1 FMN301   0.0000
    30 O2P         14.9700    38.1360    14.9070 O.co2        1 FMN301  -1.0000
    31 O3P         15.9600    37.1750    13.0380 O.co2        1 FMN301  -1.0000
    32 H1          14.6541    38.4787    23.7819 H            1 FMN301   0.0000
    33 H2          19.0646    33.0372    24.2610 H            1 FMN301   0.0000
    34 H7M1        21.7355    31.2747    22.6118 H            1 FMN301   0.0000
    35 H7M2        21.1781    31.5067    24.1291 H            1 FMN301   0.0000
    36 H7M3        20.1844    30.9163    22.9755 H            1 FMN301   0.0000
    37 H8M1        22.3813    33.7343    20.0560 H            1 FMN301   0.0000
    38 H8M2        23.0088    33.0114    21.3790 H            1 FMN301   0.0000
    39 H8M3        21.9502    32.2049    20.4326 H            1 FMN301   0.0000
    40 H9          20.8095    35.2518    20.3593 H            1 FMN301   0.0000
    41 H1'1        20.4039    36.9286    20.2236 H            1 FMN301   0.0000
    42 H1'2        19.4356    38.2120    20.5100 H            1 FMN301   0.0000
    43 H2'         17.7867    37.3652    19.0586 H            1 FMN301   0.0000
    44 H13         18.0546    35.1000    19.3869 H            1 FMN301   0.0000
    45 H3'         20.4636    37.4483    18.0153 H            1 FMN301   0.0000
    46 H15         19.8039    39.5093    17.3304 H            1 FMN301   0.0000
    47 H4'         18.9311    36.3111    16.4577 H            1 FMN301   0.0000
    48 H17         20.9040    37.2609    15.8399 H            1 FMN301   0.0000
    49 H5'1        17.7398    38.9420    16.4650 H            1 FMN301   0.0000
    50 H5'2        16.9698    37.5288    16.7424 H            1 FMN301   0.0000
@<TRIPOS>BOND
     1    1    2       1
     2    1   18       2
     3    2    3       2
     4    2    4       1
     5    4    5       1
     6    5    6       2
     7    5    7       1
     8    7    8       2
     9    7   18       1
    10    8    9       1
    11    9   10      ar
    12    9   16      ar
    13   10   11      ar
    14   11   12       1
    15   11   13      ar
    16   13   14       1
    17   13   15      ar
    18   15   16      ar
    19   16   17       1
    20   17   18       1
    21   17   19       1
    22   19   20       1
    23   20   21       1
    24   20   22       1
    25   22   23       1
    26   22   24       1
    27   24   25       1
    28   24   26       1
    29   26   27       1
    30   27   28       1
    31   28   29      ar
    32   28   30      ar
    33   28   31      ar
    34    4   32       1
    35   10   33       1
    36   12   34       1
    37   12   35       1
    38   12   36       1
    39   14   37       1
    40   14   38       1
    41   14   39       1
    42   15   40       1
    43   19   41       1
    44   19   42       1
    45   20   43       1
    46   21   44       1
    47   22   45       1
    48   23   46       1
    49   24   47       1
    50   25   48       1
    51   26   49       1
    52   26   50       1
@<TRIPOS>SUBSTRUCTURE
     1 FMN301      1 GROUP             4 A     FMN     0 **** FMN A 301
