@<TRIPOS>MOLECULE
3gan_SVR_1_ligand
  120   127     1     0     0
SMALL
NO_CHARGES


@<TRIPOS>ATOM
     1 O35         57.9700    15.8460    -6.8850 O.co2        1 SVR158   0.0000
     2 S31         58.0880    14.8490    -5.8080 S.o2         1 SVR158   0.0000
     3 O36         58.6910    15.4650    -4.6110 O.co2        1 SVR158   0.0000
     4 O34         58.8800    13.6670    -6.2500 O.co2        1 SVR158  -1.0000
     5 C22         56.6220    14.2860    -5.4840 C.ar         1 SVR158   0.0000
     6 C18         56.1610    14.2170    -4.1840 C.ar         1 SVR158   0.0000
     7 C11         54.9040    13.7100    -3.9360 C.ar         1 SVR158   0.0000
     8 S17         54.3820    13.6680    -2.4770 S.o2         1 SVR158   0.0000
     9 O23         54.1120    12.2600    -2.1290 O.co2        1 SVR158   0.0000
    10 O24         55.3880    14.2440    -1.5680 O.co2        1 SVR158   0.0000
    11 O25         53.1940    14.5510    -2.4540 O.co2        1 SVR158  -1.0000
    12 C16         55.7960    13.8340    -6.5090 C.ar         1 SVR158   0.0000
    13 C10         54.5160    13.3450    -6.2320 C.ar         1 SVR158   0.0000
    14 C15         53.7210    12.9030    -7.2830 C.ar         1 SVR158   0.0000
    15 S21         54.2560    13.0080    -8.7810 S.o2         1 SVR158   0.0000
    16 O28         54.1400    11.7210    -9.4850 O.co2        1 SVR158   0.0000
    17 O29         53.3810    14.0060    -9.4280 O.co2        1 SVR158   0.0000
    18 O30         55.6500    13.5070    -8.7800 O.co2        1 SVR158  -1.0000
    19 C12         52.4620    12.4090    -7.0140 C.ar         1 SVR158   0.0000
    20 C7          51.9920    12.3580    -5.7020 C.ar         1 SVR158   0.0000
    21 C6          54.0510    13.2810    -4.9190 C.ar         1 SVR158   0.0000
    22 C3          52.7650    12.7800    -4.6260 C.ar         1 SVR158   0.0000
    23 N1          52.1960    12.6790    -3.3250 N.am         1 SVR158   0.0000
    24 C2          51.2320    13.6980    -2.8720 C.2          1 SVR158   0.0000
    25 O4          50.8200    14.2600    -3.8480 O.2          1 SVR158   0.0000
    26 C5          50.4860    13.6990    -1.5400 C.ar         1 SVR158   0.0000
    27 C8          49.1090    13.9260    -1.5110 C.ar         1 SVR158   0.0000
    28 C9          51.1380    13.4610    -0.3110 C.ar         1 SVR158   0.0000
    29 C14         50.4390    13.4790     0.9130 C.ar         1 SVR158   0.0000
    30 C20         49.0520    13.7110     0.9230 C.ar         1 SVR158   0.0000
    31 C27         48.2550    13.7130     2.2080 C.3          1 SVR158   0.0000
    32 C13         48.4210    13.9390    -0.2910 C.ar         1 SVR158   0.0000
    33 N19         47.0480    14.1710    -0.3210 N.am         1 SVR158   0.0000
    34 C26         46.2680    13.3260    -0.9940 C.2          1 SVR158   0.0000
    35 O32         46.7130    12.3660    -1.5920 O.2          1 SVR158   0.0000
    36 C33         44.7820    13.5920    -1.0260 C.ar         1 SVR158   0.0000
    37 C37         43.9810    12.5880    -1.5150 C.ar         1 SVR158   0.0000
    38 C38         44.2500    14.8270    -0.5870 C.ar         1 SVR158   0.0000
    39 C40         42.8630    15.0250    -0.6590 C.ar         1 SVR158   0.0000
    40 C42         42.0510    13.9790    -1.1670 C.ar         1 SVR158   0.0000
    41 C39         42.6050    12.7430    -1.5200 C.ar         1 SVR158   0.0000
    42 N41         41.7990    11.8010    -2.1100 N.am         1 SVR158   0.0000
    43 C43         40.4710    11.7170    -2.0100 C.2          1 SVR158   0.0000
    44 O45         39.8380    12.3500    -1.1920 O.2          1 SVR158   0.0000
    45 N44         39.8840    10.8200    -2.8180 N.am         1 SVR158   0.0000
    46 C46         38.4940    10.5390    -2.8750 C.ar         1 SVR158   0.0000
    47 C47         37.6080    11.6250    -2.8740 C.ar         1 SVR158   0.0000
    48 C48         38.0380     9.2430    -3.1340 C.ar         1 SVR158   0.0000
    49 C50         36.6380     9.0070    -3.2610 C.ar         1 SVR158   0.0000
    50 C52         35.7480    10.0620    -3.1780 C.ar         1 SVR158   0.0000
    51 C49         36.2190    11.3800    -3.0210 C.ar         1 SVR158   0.0000
    52 C51         35.2440    12.5180    -2.9760 C.2          1 SVR158   0.0000
    53 O54         34.2040    12.4690    -3.6250 O.2          1 SVR158   0.0000
    54 N53         35.5330    13.6220    -2.2360 N.am         1 SVR158   0.0000
    55 C55         34.6840    14.7170    -2.2310 C.ar         1 SVR158   0.0000
    56 C56         34.1460    15.0760    -0.9580 C.ar         1 SVR158   0.0000
    57 C57         34.3910    15.4750    -3.3690 C.ar         1 SVR158   0.0000
    58 C59         34.9780    15.2140    -4.7440 C.3          1 SVR158   0.0000
    59 C60         33.5270    16.5520    -3.3140 C.ar         1 SVR158   0.0000
    60 C62         32.9630    16.9050    -2.0700 C.ar         1 SVR158   0.0000
    61 C58         33.2760    16.1530    -0.9330 C.ar         1 SVR158   0.0000
    62 C61         32.6660    16.5390     0.3730 C.2          1 SVR158   0.0000
    63 O64         33.3180    16.2940     1.4810 O.2          1 SVR158   0.0000
    64 N63         31.4000    16.9430     0.4220 N.am         1 SVR158   0.0000
    65 C65         30.8110    17.5000     1.5000 C.ar         1 SVR158   0.0000
    66 C67         31.5560    18.2270     2.4260 C.ar         1 SVR158   0.0000
    67 C70         30.8590    18.8230     3.5130 C.ar         1 SVR158   0.0000
    68 C71         29.4660    18.7360     3.6870 C.ar         1 SVR158   0.0000
    69 S75         28.6880    19.4640     4.9890 S.o2         1 SVR158   0.0000
    70 O80         27.7640    18.4030     5.4350 O.co2        1 SVR158   0.0000
    71 O81         29.6800    19.9740     5.9030 O.co2        1 SVR158   0.0000
    72 O82         27.9450    20.6700     4.5870 O.co2        1 SVR158  -1.0000
    73 C66         29.4190    17.3550     1.6510 C.ar         1 SVR158   0.0000
    74 C68         28.7790    17.9940     2.7580 C.ar         1 SVR158   0.0000
    75 C72         27.3970    17.9050     2.9040 C.ar         1 SVR158   0.0000
    76 C69         28.6390    16.6400     0.7260 C.ar         1 SVR158   0.0000
    77 S73         29.1700    15.7620    -0.5100 S.o2         1 SVR158   0.0000
    78 O77         30.0870    14.6950    -0.0290 O.co2        1 SVR158   0.0000
    79 O78         28.0090    15.0700    -0.9740 O.co2        1 SVR158   0.0000
    80 O79         29.7260    16.5220    -1.6010 O.co2        1 SVR158  -1.0000
    81 C74         27.2470    16.5600     0.9090 C.ar         1 SVR158   0.0000
    82 C76         26.6560    17.1910     1.9820 C.ar         1 SVR158   0.0000
    83 S83         25.0380    17.1650     2.1520 S.o2         1 SVR158   0.0000
    84 O85         24.4320    18.0620     1.1640 O.co2        1 SVR158   0.0000
    85 O86         24.4530    15.8460     1.7920 O.co2        1 SVR158   0.0000
    86 O84         24.7990    17.8940     3.3980 O.co2        1 SVR158  -1.0000
    87 H1          56.7351    14.5326    -3.4284 H            1 SVR158   0.0000
    88 H2          56.1218    13.8593    -7.4541 H            1 SVR158   0.0000
    89 H3          51.8835    12.0859    -7.7630 H            1 SVR158   0.0000
    90 H4          51.0714    12.0074    -5.5299 H            1 SVR158   0.0000
    91 H5          52.4486    11.9219    -2.7225 H            1 SVR158   0.0000
    92 H6          48.6117    14.0800    -2.3648 H            1 SVR158   0.0000
    93 H7          52.1205    13.2749    -0.3085 H            1 SVR158   0.0000
    94 H8          50.9281    13.3272     1.7719 H            1 SVR158   0.0000
    95 H9          47.2933    13.8956     2.0035 H            1 SVR158   0.0000
    96 H10         48.3377    12.8213     2.6529 H            1 SVR158   0.0000
    97 H11         48.6069    14.4235     2.8174 H            1 SVR158   0.0000
    98 H12         46.6545    14.9580     0.1542 H            1 SVR158   0.0000
    99 H13         44.3913    11.7466    -1.8667 H            1 SVR158   0.0000
   100 H14         44.8502    15.5441    -0.2327 H            1 SVR158   0.0000
   101 H15         42.4548    15.8869    -0.3580 H            1 SVR158   0.0000
   102 H16         41.0678    14.1268    -1.2746 H            1 SVR158   0.0000
   103 H17         42.2526    11.1084    -2.6709 H            1 SVR158   0.0000
   104 H18         40.4788    10.3040    -3.4344 H            1 SVR158   0.0000
   105 H19         37.9503    12.5589    -2.7711 H            1 SVR158   0.0000
   106 H20         38.6877     8.4888    -3.2292 H            1 SVR158   0.0000
   107 H21         36.2993     8.0780    -3.4102 H            1 SVR158   0.0000
   108 H22         34.7646     9.8882    -3.2297 H            1 SVR158   0.0000
   109 H23         36.3694    13.6437    -1.6882 H            1 SVR158   0.0000
   110 H24         34.3854    14.5749    -0.1264 H            1 SVR158   0.0000
   111 H25         34.6195    15.8855    -5.3925 H            1 SVR158   0.0000
   112 H26         35.9741    15.2908    -4.7012 H            1 SVR158   0.0000
   113 H27         34.7272    14.2937    -5.0443 H            1 SVR158   0.0000
   114 H28         33.3059    17.0709    -4.1397 H            1 SVR158   0.0000
   115 H29         32.3439    17.6873    -2.0016 H            1 SVR158   0.0000
   116 H30         30.8439    16.8252    -0.4007 H            1 SVR158   0.0000
   117 H31         32.5464    18.3263     2.3297 H            1 SVR158   0.0000
   118 H32         31.3887    19.3322     4.1913 H            1 SVR158   0.0000
   119 H33         26.9430    18.3558     3.6726 H            1 SVR158   0.0000
   120 H34         26.6861    16.0453     0.2606 H            1 SVR158   0.0000
@<TRIPOS>BOND
     1    1    2      ar
     2    2    3      ar
     3    2    4      ar
     4    2    5       1
     5    5    6      ar
     6    5   12      ar
     7    6    7      ar
     8    7    8       1
     9    7   21      ar
    10    8    9      ar
    11    8   10      ar
    12    8   11      ar
    13   12   13      ar
    14   13   14      ar
    15   13   21      ar
    16   14   15       1
    17   14   19      ar
    18   15   16      ar
    19   15   17      ar
    20   15   18      ar
    21   19   20      ar
    22   20   22      ar
    23   21   22      ar
    24   22   23       1
    25   23   24      am
    26   24   25       2
    27   24   26       1
    28   26   27      ar
    29   26   28      ar
    30   27   32      ar
    31   28   29      ar
    32   29   30      ar
    33   30   31       1
    34   30   32      ar
    35   32   33       1
    36   33   34      am
    37   34   35       2
    38   34   36       1
    39   36   37      ar
    40   36   38      ar
    41   37   41      ar
    42   38   39      ar
    43   39   40      ar
    44   40   41      ar
    45   41   42       1
    46   42   43      am
    47   43   44       2
    48   43   45      am
    49   45   46       1
    50   46   47      ar
    51   46   48      ar
    52   47   51      ar
    53   48   49      ar
    54   49   50      ar
    55   50   51      ar
    56   51   52       1
    57   52   53       2
    58   52   54      am
    59   54   55       1
    60   55   56      ar
    61   55   57      ar
    62   56   61      ar
    63   57   58       1
    64   57   59      ar
    65   59   60      ar
    66   60   61      ar
    67   61   62       1
    68   62   63       2
    69   62   64      am
    70   64   65       1
    71   65   66      ar
    72   65   73      ar
    73   66   67      ar
    74   67   68      ar
    75   68   69       1
    76   68   74      ar
    77   69   70      ar
    78   69   71      ar
    79   69   72      ar
    80   73   74      ar
    81   73   76      ar
    82   74   75      ar
    83   75   82      ar
    84   76   77       1
    85   76   81      ar
    86   77   78      ar
    87   77   79      ar
    88   77   80      ar
    89   81   82      ar
    90   82   83       1
    91   83   84      ar
    92   83   85      ar
    93   83   86      ar
    94   67  118       1
    95    6   87       1
    96   81  120       1
    97   12   88       1
    98   75  119       1
    99   19   89       1
   100   20   90       1
   101   23   91       1
   102   27   92       1
   103   28   93       1
   104   29   94       1
   105   31   95       1
   106   31   96       1
   107   31   97       1
   108   33   98       1
   109   37   99       1
   110   38  100       1
   111   39  101       1
   112   40  102       1
   113   42  103       1
   114   45  104       1
   115   47  105       1
   116   48  106       1
   117   49  107       1
   118   50  108       1
   119   54  109       1
   120   56  110       1
   121   58  111       1
   122   58  112       1
   123   58  113       1
   124   59  114       1
   125   60  115       1
   126   64  116       1
   127   66  117       1
@<TRIPOS>SUBSTRUCTURE
     1 SVR158      1 GROUP             4 A     SVR     0 **** SVR A 158
