@<TRIPOS>MOLECULE
2zet_GTP_2_ligand
   44    46     1     0     0
SMALL
NO_CHARGES


@<TRIPOS>ATOM
     1 PG          -7.7870    74.4000   152.9900 P.3          1 GTP203   0.0000
     2 O1G         -8.1860    73.0020   152.6280 O.co2        1 GTP203   0.0000
     3 O2G         -6.2010    74.5900   152.7390 O.co2        1 GTP203  -1.0000
     4 O3G         -8.1020    74.6640   154.5400 O.co2        1 GTP203  -1.0000
     5 O3B         -8.6730    75.4760   152.1060 O.3          1 GTP203   0.0000
     6 PB          -7.9650    75.8500   150.6830 P.3          1 GTP203   0.0000
     7 O1B         -6.5810    76.3690   150.8450 O.co2        1 GTP203   0.0000
     8 O2B         -7.9380    74.5300   149.7640 O.co2        1 GTP203  -1.0000
     9 O3A         -8.8560    76.9980   149.9690 O.3          1 GTP203   0.0000
    10 PA         -10.3930    76.6480   149.5080 P.3          1 GTP203   0.0000
    11 O1A        -10.4390    75.6450   148.4290 O.co2        1 GTP203   0.0000
    12 O2A        -11.2850    76.1320   150.7630 O.co2        1 GTP203  -1.0000
    13 O5'        -10.9290    78.0750   148.9330 O.3          1 GTP203   0.0000
    14 C5'        -11.0070    78.9570   150.1060 C.3          1 GTP203   0.0000
    15 C4'        -12.0470    80.0760   149.8420 C.3          1 GTP203   0.0000
    16 O4'        -11.5450    81.0210   148.8680 O.3          1 GTP203   0.0000
    17 C3'        -13.3770    79.4410   149.3570 C.3          1 GTP203   0.0000
    18 O3'        -14.4900    79.6330   150.2420 O.3          1 GTP203   0.0000
    19 C2'        -13.6280    80.0840   147.9740 C.3          1 GTP203   0.0000
    20 O2'        -14.9130    80.6660   147.8840 O.3          1 GTP203   0.0000
    21 C1'        -12.4980    81.1560   147.8030 C.3          1 GTP203   0.0000
    22 N9         -11.8210    81.1070   146.5280 N.pl3        1 GTP203   0.0000
    23 C8         -11.0630    80.0700   145.9980 C.2          1 GTP203   0.0000
    24 N7         -10.6050    80.4250   144.8080 N.2          1 GTP203   0.0000
    25 C5         -11.0410    81.7030   144.5140 C.2          1 GTP203   0.0000
    26 C6         -10.8730    82.6170   143.4020 C.2          1 GTP203   0.0000
    27 O6         -10.2140    82.2990   142.4250 O.2          1 GTP203   0.0000
    28 N1         -11.4820    83.8660   143.4730 N.pl3        1 GTP203   0.0000
    29 C2         -12.2460    84.2360   144.6100 C.2          1 GTP203   0.0000
    30 N2         -12.8570    85.4920   144.6770 N.pl3        1 GTP203   0.0000
    31 N3         -12.3990    83.3870   145.6380 N.2          1 GTP203   0.0000
    32 C4         -11.8230    82.1410   145.6300 C.2          1 GTP203   0.0000
    33 H5'1       -10.1109    79.3676   150.2746 H            1 GTP203   0.0000
    34 H5'2       -11.2855    78.4248   150.9055 H            1 GTP203   0.0000
    35 H4'        -12.2186    80.5615   150.6993 H            1 GTP203   0.0000
    36 H3'        -13.2348    78.4592   149.2314 H            1 GTP203   0.0000
    37 H5         -15.3371    79.6597   149.7113 H            1 GTP203   0.0000
    38 H2'        -13.5313    79.3868   147.2637 H            1 GTP203   0.0000
    39 H7         -15.0336    81.0690   146.9768 H            1 GTP203   0.0000
    40 H1'        -12.9209    82.0583   147.8872 H            1 GTP203   0.0000
    41 H9         -10.8905    79.1926   146.4457 H            1 GTP203   0.0000
    42 H10        -13.3937    85.7446   145.4821 H            1 GTP203   0.0000
    43 H11        -12.7573    86.1376   143.9198 H            1 GTP203   0.0000
    44 H12        -11.3802    84.5098   142.7146 H            1 GTP203   0.0000
@<TRIPOS>BOND
     1    1    2      ar
     2    1    3      ar
     3    1    4      ar
     4    1    5       1
     5    5    6       1
     6    6    7      ar
     7    6    8      ar
     8    6    9       1
     9    9   10       1
    10   10   11      ar
    11   10   12      ar
    12   10   13       1
    13   13   14       1
    14   14   15       1
    15   15   16       1
    16   15   17       1
    17   16   21       1
    18   17   18       1
    19   17   19       1
    20   19   20       1
    21   19   21       1
    22   21   22       1
    23   22   23       1
    24   22   32       1
    25   23   24       2
    26   24   25       1
    27   25   26       1
    28   25   32       2
    29   26   27       2
    30   26   28       1
    31   28   29       1
    32   29   30       1
    33   29   31       2
    34   31   32       1
    35   28   44       1
    36   30   43       1
    37   30   42       1
    38   23   41       1
    39   14   33       1
    40   14   34       1
    41   15   35       1
    42   17   36       1
    43   18   37       1
    44   19   38       1
    45   20   39       1
    46   21   40       1
@<TRIPOS>SUBSTRUCTURE
     1 GTP203      1 GROUP             4 B     GTP     0 **** GTP B 203
