@<TRIPOS>MOLECULE
5ab6_CAA_3_ligand
   90    92     1     0     0
SMALL
NO_CHARGES


@<TRIPOS>ATOM
     1 N1A        -41.5180   -28.2060    79.2650 N.ar         1 CAA1409   0.0000
     2 C2A        -41.1180   -29.3100    79.9320 C.ar         1 CAA1409   0.0000
     3 N3A        -40.2490   -30.2010    79.4180 N.ar         1 CAA1409   0.0000
     4 C4A        -39.7270   -30.0360    78.1790 C.ar         1 CAA1409   0.0000
     5 C5A        -40.1190   -28.8570    77.3930 C.ar         1 CAA1409   0.0000
     6 C6A        -41.0730   -27.9180    78.0180 C.ar         1 CAA1409   0.0000
     7 N6A        -41.4800   -26.8140    77.3570 N.pl3        1 CAA1409   0.0000
     8 N7A        -39.4660   -28.9340    76.2240 N.2          1 CAA1409   0.0000
     9 C8A        -38.7210   -30.0670    76.2510 C.2          1 CAA1409   0.0000
    10 N9A        -38.8780   -30.7200    77.4180 N.pl3        1 CAA1409   0.0000
    11 C1B        -38.2200   -31.9880    77.8130 C.3          1 CAA1409   0.0000
    12 C2B        -38.7530   -33.1560    76.9960 C.3          1 CAA1409   0.0000
    13 O2B        -39.7460   -33.8860    77.7280 O.3          1 CAA1409   0.0000
    14 C3B        -37.5280   -33.9970    76.6800 C.3          1 CAA1409   0.0000
    15 O3B        -37.4700   -35.1620    77.5020 O.3          1 CAA1409   0.0000
    16 P3B        -36.7740   -36.5190    76.9790 P.3          1 CAA1409   0.0000
    17 O7A        -36.5750   -37.3240    78.2440 O.co2        1 CAA1409   0.0000
    18 O8A        -35.4880   -36.0560    76.3320 O.co2        1 CAA1409  -1.0000
    19 O9A        -37.7810   -37.1100    76.0180 O.co2        1 CAA1409  -1.0000
    20 C4B        -36.3240   -33.0990    76.9490 C.3          1 CAA1409   0.0000
    21 O4B        -36.8090   -31.9090    77.5800 O.3          1 CAA1409   0.0000
    22 C5B        -35.5800   -32.7450    75.6670 C.3          1 CAA1409   0.0000
    23 O5B        -36.4550   -32.0220    74.8030 O.3          1 CAA1409   0.0000
    24 P1A        -36.0170   -31.5870    73.3170 P.3          1 CAA1409   0.0000
    25 O1A        -35.7460   -32.8440    72.5270 O.co2        1 CAA1409   0.0000
    26 O2A        -37.0300   -30.5900    72.8070 O.co2        1 CAA1409  -1.0000
    27 O3A        -34.6160   -30.8310    73.5860 O.3          1 CAA1409   0.0000
    28 P2A        -33.8330   -30.0470    72.4130 P.3          1 CAA1409   0.0000
    29 O4A        -32.5180   -29.5270    72.9510 O.co2        1 CAA1409   0.0000
    30 O5A        -33.8420   -30.9090    71.1720 O.co2        1 CAA1409  -1.0000
    31 O6A        -34.7870   -28.7760    72.1550 O.3          1 CAA1409   0.0000
    32 CBP        -35.9340   -26.7290    72.6440 C.3          1 CAA1409   0.0000
    33 CCP        -35.2400   -27.9520    73.2250 C.3          1 CAA1409   0.0000
    34 CDP        -34.8810   -25.8310    72.0010 C.3          1 CAA1409   0.0000
    35 CEP        -36.6460   -25.9870    73.7690 C.3          1 CAA1409   0.0000
    36 CAP        -36.9400   -27.1890    71.5730 C.3          1 CAA1409   0.0000
    37 OAP        -37.8250   -28.1910    72.0990 O.3          1 CAA1409   0.0000
    38 C9P        -37.7420   -26.0360    71.0350 C.2          1 CAA1409   0.0000
    39 O9P        -37.2890   -25.3800    70.1090 O.2          1 CAA1409   0.0000
    40 N8P        -38.9260   -25.7990    71.6080 N.am         1 CAA1409   0.0000
    41 C7P        -39.8010   -24.7230    71.1760 C.3          1 CAA1409   0.0000
    42 C6P        -40.5930   -25.1120    69.9270 C.3          1 CAA1409   0.0000
    43 C5P        -41.1160   -23.8930    69.1950 C.2          1 CAA1409   0.0000
    44 O5P        -40.4280   -22.8870    69.0980 O.2          1 CAA1409   0.0000
    45 N4P        -42.3430   -23.9810    68.6740 N.am         1 CAA1409   0.0000
    46 C3P        -42.9590   -22.8790    67.9520 C.3          1 CAA1409   0.0000
    47 C2P        -43.4020   -21.7570    68.8870 C.3          1 CAA1409   0.0000
    48 S1P        -43.7230   -20.2800    67.9730 S.3          1 CAA1409   0.0000
    49 C1         -45.2570   -20.5300    67.3480 C.2          1 CAA1409   0.0000
    50 O1         -46.0010   -21.3950    67.8020 O.2          1 CAA1409   0.0000
    51 C2         -45.7260   -19.6440    66.2130 C.3          1 CAA1409   0.0000
    52 C3         -45.7740   -20.3420    64.8690 C.2          1 CAA1409   0.0000
    53 O3         -46.1650   -19.7060    63.9090 O.2          1 CAA1409   0.0000
    54 C4         -45.3650   -21.7830    64.7070 C.3          1 CAA1409   0.0000
    55 H2A        -41.4834   -29.4731    80.8484 H            1 CAA1409   0.0000
    56 H6A1       -41.1351   -26.6263    76.4373 H            1 CAA1409   0.0000
    57 H6A2       -42.1264   -26.1837    77.7869 H            1 CAA1409   0.0000
    58 H8A        -38.1332   -30.3763    75.5035 H            1 CAA1409   0.0000
    59 H1B        -38.3865   -32.1594    78.7840 H            1 CAA1409   0.0000
    60 H2B        -39.1509   -32.8135    76.1449 H            1 CAA1409   0.0000
    61 H7         -39.4460   -34.8329    77.8435 H            1 CAA1409   0.0000
    62 H3B        -37.5413   -34.2641    75.7164 H            1 CAA1409   0.0000
    63 H4B        -35.6981   -33.5682    77.5720 H            1 CAA1409   0.0000
    64 H5B1       -35.2784   -33.5832    75.2127 H            1 CAA1409   0.0000
    65 H5B2       -34.7846   -32.1802    75.8867 H            1 CAA1409   0.0000
    66 HCP1       -34.4599   -27.6634    73.7802 H            1 CAA1409   0.0000
    67 HCP2       -35.8830   -28.4642    73.7944 H            1 CAA1409   0.0000
    68 HDP1       -35.3239   -25.0220    71.6144 H            1 CAA1409   0.0000
    69 HDP2       -34.2163   -25.5486    72.6927 H            1 CAA1409   0.0000
    70 HDP3       -34.4127   -26.3339    71.2745 H            1 CAA1409   0.0000
    71 HEP1       -37.1060   -25.1805    73.3976 H            1 CAA1409   0.0000
    72 HEP2       -37.3217   -26.5911    74.1914 H            1 CAA1409   0.0000
    73 HEP3       -35.9775   -25.7026    74.4561 H            1 CAA1409   0.0000
    74 HAP        -36.4267   -27.5925    70.8155 H            1 CAA1409   0.0000
    75 H21        -37.2919   -28.9816    72.4004 H            1 CAA1409   0.0000
    76 H8P        -39.2208   -26.3848    72.3630 H            1 CAA1409   0.0000
    77 H7P1       -39.2470   -23.9160    70.9713 H            1 CAA1409   0.0000
    78 H7P2       -40.4416   -24.5092    71.9135 H            1 CAA1409   0.0000
    79 H6P1       -41.3669   -25.6840    70.1988 H            1 CAA1409   0.0000
    80 H6P2       -39.9965   -25.6283    69.3124 H            1 CAA1409   0.0000
    81 H4P        -42.8549   -24.8329    68.7841 H            1 CAA1409   0.0000
    82 H3P1       -43.7585   -23.2229    67.4595 H            1 CAA1409   0.0000
    83 H3P2       -42.2973   -22.5117    67.2983 H            1 CAA1409   0.0000
    84 H2P1       -42.6787   -21.5802    69.5546 H            1 CAA1409   0.0000
    85 H2P2       -44.2352   -22.0362    69.3643 H            1 CAA1409   0.0000
    86 H32        -45.1013   -18.8664    66.1418 H            1 CAA1409   0.0000
    87 H33        -46.6450   -19.3146    66.4297 H            1 CAA1409   0.0000
    88 H34        -45.4685   -22.0533    63.7498 H            1 CAA1409   0.0000
    89 H35        -44.4098   -21.8914    64.9825 H            1 CAA1409   0.0000
    90 H36        -45.9452   -22.3607    65.2811 H            1 CAA1409   0.0000
@<TRIPOS>BOND
     1    1    2      ar
     2    1    6      ar
     3    2    3      ar
     4    3    4      ar
     5    4    5      ar
     6    4   10       1
     7    5    6      ar
     8    5    8       1
     9    6    7       1
    10    8    9       2
    11    9   10       1
    12   10   11       1
    13   11   12       1
    14   11   21       1
    15   12   13       1
    16   12   14       1
    17   14   15       1
    18   14   20       1
    19   15   16       1
    20   16   17      ar
    21   16   18      ar
    22   16   19      ar
    23   20   21       1
    24   20   22       1
    25   22   23       1
    26   23   24       1
    27   24   25      ar
    28   24   26      ar
    29   24   27       1
    30   27   28       1
    31   28   29      ar
    32   28   30      ar
    33   28   31       1
    34   31   33       1
    35   32   33       1
    36   32   34       1
    37   32   35       1
    38   32   36       1
    39   36   37       1
    40   36   38       1
    41   38   39       2
    42   38   40      am
    43   40   41       1
    44   41   42       1
    45   42   43       1
    46   43   44       2
    47   43   45      am
    48   45   46       1
    49   46   47       1
    50   47   48       1
    51   48   49       1
    52   49   50       2
    53   49   51       1
    54   51   52       1
    55   52   53       2
    56   52   54       1
    57    2   55       1
    58    7   56       1
    59    7   57       1
    60    9   58       1
    61   11   59       1
    62   12   60       1
    63   13   61       1
    64   14   62       1
    65   54   90       1
    66   54   89       1
    67   20   63       1
    68   22   64       1
    69   22   65       1
    70   54   88       1
    71   51   87       1
    72   33   66       1
    73   33   67       1
    74   34   68       1
    75   34   69       1
    76   34   70       1
    77   35   71       1
    78   35   72       1
    79   35   73       1
    80   36   74       1
    81   37   75       1
    82   40   76       1
    83   41   77       1
    84   41   78       1
    85   42   79       1
    86   42   80       1
    87   45   81       1
    88   46   82       1
    89   46   83       1
    90   47   84       1
    91   47   85       1
    92   51   86       1
@<TRIPOS>SUBSTRUCTURE
     1 CAA1409     1 GROUP             4 C     CAA     0 **** CAA C1409
