@<TRIPOS>MOLECULE
1qwj_NCC_2_ligand
   70    72     1     0     0
SMALL
NO_CHARGES


@<TRIPOS>ATOM
     1 O3P         96.4840    -9.5060    50.7550 O.co2        1 NCC3002   0.0000
     2 P           97.0470   -10.1110    51.9920 P.3          1 NCC3002   0.0000
     3 O2P         97.1740    -8.9730    53.1340 O.3          1 NCC3002   0.0000
     4 O1P         96.1430   -11.2230    52.4250 O.co2        1 NCC3002  -1.0000
     5 O5'         98.5080   -10.7080    51.7400 O.3          1 NCC3002   0.0000
     6 C5'         99.6410    -9.9230    51.3060 C.3          1 NCC3002   0.0000
     7 C4'        100.6140   -10.8030    50.4840 C.3          1 NCC3002   0.0000
     8 O4'        101.1570   -11.8270    51.3430 O.3          1 NCC3002   0.0000
     9 C1'        101.1230   -13.1180    50.6980 C.3          1 NCC3002   0.0000
    10 N1         100.6800   -14.1980    51.6340 N.pl3        1 NCC3002   0.0000
    11 C6          99.7870   -13.8870    52.6460 C.2          1 NCC3002   0.0000
    12 C5          99.3430   -14.8700    53.5490 C.2          1 NCC3002   0.0000
    13 C4          99.8640   -16.1730    53.3970 C.2          1 NCC3002   0.0000
    14 N4          99.4770   -17.1390    54.2460 N.pl3        1 NCC3002   0.0000
    15 N3         100.7480   -16.4590    52.3850 N.2          1 NCC3002   0.0000
    16 C2         101.1700   -15.4910    51.5140 C.2          1 NCC3002   0.0000
    17 O2         101.9580   -15.8100    50.6250 O.2          1 NCC3002   0.0000
    18 C2'        100.2180   -12.9800    49.4510 C.3          1 NCC3002   0.0000
    19 O2'        100.8840   -13.5340    48.3130 O.3          1 NCC3002   0.0000
    20 C3'         99.9110   -11.4830    49.3090 C.3          1 NCC3002   0.0000
    21 O3'        100.4580   -10.9460    48.0950 O.3          1 NCC3002   0.0000
    22 C9          95.2050    -9.1170    54.5630 C.2          1 NCC3002   0.0000
    23 O1B         94.5060    -9.1110    53.5580 O.co2        1 NCC3002   0.0000
    24 O1A         94.6560    -9.1830    55.7800 O.co2        1 NCC3002  -1.0000
    25 C10         96.7250    -9.0450    54.5210 C.3          1 NCC3002   0.0000
    26 O6          97.1560    -7.8380    55.2150 O.3          1 NCC3002   0.0000
    27 C12         98.6070    -7.6760    55.2460 C.3          1 NCC3002   0.0000
    28 C13         98.9640    -6.3400    55.9770 C.3          1 NCC3002   0.0000
    29 O7          98.2880    -6.2780    57.2430 O.3          1 NCC3002   0.0000
    30 C14         98.5580    -5.1150    55.1090 C.3          1 NCC3002   0.0000
    31 O8          99.2160    -5.1460    53.8400 O.3          1 NCC3002   0.0000
    32 C15         98.9060    -3.7910    55.8210 C.3          1 NCC3002   0.0000
    33 O9          97.7390    -2.9660    55.9020 O.3          1 NCC3002   0.0000
    34 C16         99.2790    -8.9090    55.9600 C.3          1 NCC3002   0.0000
    35 N5         100.7270    -8.7850    55.9850 N.am         1 NCC3002   0.0000
    36 C17        101.2980    -8.8860    57.3330 C.2          1 NCC3002   0.0000
    37 O10        100.6290    -9.0590    58.3470 O.2          1 NCC3002   0.0000
    38 C18        102.7890    -8.7680    57.4500 C.3          1 NCC3002   0.0000
    39 C19         98.8790   -10.2030    55.2160 C.3          1 NCC3002   0.0000
    40 O4          99.4710   -11.3330    55.8510 O.3          1 NCC3002   0.0000
    41 C20         97.3290   -10.3040    55.2290 C.3          1 NCC3002   0.0000
    42 H5'1       100.1185    -9.5607    52.1065 H            1 NCC3002   0.0000
    43 H5'2        99.3202    -9.1651    50.7379 H            1 NCC3002   0.0000
    44 H4'        101.3598   -10.2342    50.1373 H            1 NCC3002   0.0000
    45 H1'        102.0486   -13.3353    50.3881 H            1 NCC3002   0.0000
    46 H5          99.4526   -12.9489    52.7362 H            1 NCC3002   0.0000
    47 H6          98.6844   -14.6542    54.2699 H            1 NCC3002   0.0000
    48 H7          99.8396   -18.0657    54.1478 H            1 NCC3002   0.0000
    49 H8          98.8262   -16.9315    54.9764 H            1 NCC3002   0.0000
    50 H2'         99.3647   -13.4774    49.6072 H            1 NCC3002   0.0000
    51 H10        101.7803   -13.8820    48.5880 H            1 NCC3002   0.0000
    52 H3'         98.9249   -11.3222    49.3501 H            1 NCC3002   0.0000
    53 H12        101.2426   -11.4969    47.8106 H            1 NCC3002   0.0000
    54 H13         98.9443    -7.6270    54.3059 H            1 NCC3002   0.0000
    55 H14         99.9510    -6.3115    56.1354 H            1 NCC3002   0.0000
    56 H15         97.7411    -7.1056    57.3697 H            1 NCC3002   0.0000
    57 H16         97.5701    -5.1453    54.9569 H            1 NCC3002   0.0000
    58 H17         98.5325    -5.1789    53.1108 H            1 NCC3002   0.0000
    59 H18         99.6162    -3.3125    55.3046 H            1 NCC3002   0.0000
    60 H19         99.2392    -3.9871    56.7432 H            1 NCC3002   0.0000
    61 H20         97.9680    -2.1091    56.3638 H            1 NCC3002   0.0000
    62 H21         98.9430    -8.9602    56.9005 H            1 NCC3002   0.0000
    63 H22        101.2801    -8.6446    55.1638 H            1 NCC3002   0.0000
    64 H23        103.0557    -8.8522    58.4101 H            1 NCC3002   0.0000
    65 H24        103.2236    -9.4949    56.9183 H            1 NCC3002   0.0000
    66 H25        103.0815    -7.8782    57.0996 H            1 NCC3002   0.0000
    67 H26         99.1983   -10.1515    54.2697 H            1 NCC3002   0.0000
    68 H27         99.2073   -12.1654    55.3636 H            1 NCC3002   0.0000
    69 H28         97.0436   -11.1301    54.7431 H            1 NCC3002   0.0000
    70 H29         97.0044   -10.3442    56.1740 H            1 NCC3002   0.0000
@<TRIPOS>BOND
     1    1    2      ar
     2    2    3       1
     3    2    4      ar
     4    2    5       1
     5    3   25       1
     6    5    6       1
     7    6    7       1
     8    7    8       1
     9    7   20       1
    10    8    9       1
    11    9   10       1
    12    9   18       1
    13   10   11       1
    14   10   16       1
    15   11   12       2
    16   12   13       1
    17   13   14       1
    18   13   15       2
    19   15   16       1
    20   16   17       2
    21   18   19       1
    22   18   20       1
    23   20   21       1
    24   22   23      ar
    25   22   24      ar
    26   22   25       1
    27   25   26       1
    28   25   41       1
    29   26   27       1
    30   27   28       1
    31   27   34       1
    32   28   29       1
    33   28   30       1
    34   30   31       1
    35   30   32       1
    36   32   33       1
    37   34   35       1
    38   34   39       1
    39   35   36      am
    40   36   37       2
    41   36   38       1
    42   39   40       1
    43   39   41       1
    44   41   70       1
    45    6   42       1
    46    6   43       1
    47    7   44       1
    48    9   45       1
    49   11   46       1
    50   12   47       1
    51   14   48       1
    52   14   49       1
    53   18   50       1
    54   19   51       1
    55   20   52       1
    56   21   53       1
    57   41   69       1
    58   27   54       1
    59   28   55       1
    60   29   56       1
    61   30   57       1
    62   31   58       1
    63   32   59       1
    64   32   60       1
    65   33   61       1
    66   34   62       1
    67   35   63       1
    68   38   64       1
    69   38   65       1
    70   38   66       1
    71   39   67       1
    72   40   68       1
@<TRIPOS>SUBSTRUCTURE
     1 NCC3002     1 GROUP             4 C     NCC     0 **** NCC C3002
