@<TRIPOS>MOLECULE
3n2i_THM_2_ligand
   31    32     1     0     0
SMALL
NO_CHARGES


@<TRIPOS>ATOM
     1 O5'         13.7220    -4.8200    22.5060 O.3          1 THM214   0.0000
     2 C5'         13.6750    -5.4490    21.2280 C.3          1 THM214   0.0000
     3 C4'         14.6120    -4.8700    20.1600 C.3          1 THM214   0.0000
     4 O4'         16.0140    -5.0280    20.4290 O.3          1 THM214   0.0000
     5 C3'         14.4270    -3.3930    20.1770 C.3          1 THM214   0.0000
     6 O3'         14.8770    -2.9370    18.8950 O.3          1 THM214   0.0000
     7 C2'         15.2870    -3.0030    21.3800 C.3          1 THM214   0.0000
     8 C1'         16.3680    -4.0930    21.4520 C.3          1 THM214   0.0000
     9 N1          17.7140    -3.5530    21.2240 N.pl3        1 THM214   0.0000
    10 C2          18.8180    -4.0000    21.9830 C.2          1 THM214   0.0000
    11 O2          18.6780    -4.8790    22.8610 O.2          1 THM214   0.0000
    12 N3          20.0410    -3.4840    21.7620 N.pl3        1 THM214   0.0000
    13 C4          20.2560    -2.5510    20.8380 C.2          1 THM214   0.0000
    14 O4          21.3930    -2.0950    20.6500 O.2          1 THM214   0.0000
    15 C5          19.1200    -2.0600    20.0210 C.2          1 THM214   0.0000
    16 C5M         19.2830    -1.0090    18.9570 C.3          1 THM214   0.0000
    17 C6          17.8850    -2.6050    20.2780 C.2          1 THM214   0.0000
    18 H5'         13.0775    -5.2710    23.1234 H            1 THM214   0.0000
    19 H5'1        12.7383    -5.3765    20.8853 H            1 THM214   0.0000
    20 H5'2        13.9109    -6.4128    21.3523 H            1 THM214   0.0000
    21 H4'         14.3854    -5.2400    19.2590 H            1 THM214   0.0000
    22 H3'         13.4681    -3.1526    20.3277 H            1 THM214   0.0000
    23 H6          15.2414    -2.0096    18.9801 H            1 THM214   0.0000
    24 H2'1        14.7397    -2.9925    22.2169 H            1 THM214   0.0000
    25 H2'2        15.7012    -2.1034    21.2413 H            1 THM214   0.0000
    26 H1'         16.3330    -4.5424    22.3446 H            1 THM214   0.0000
    27 H10         20.8116    -3.8116    22.3087 H            1 THM214   0.0000
    28 H5M1        18.3971    -0.8262    18.5306 H            1 THM214   0.0000
    29 H5M2        19.6341    -0.1685    19.3697 H            1 THM214   0.0000
    30 H5M3        19.9261    -1.3337    18.2635 H            1 THM214   0.0000
    31 H14         17.0942    -2.2921    19.7519 H            1 THM214   0.0000
@<TRIPOS>BOND
     1    1    2       1
     2    2    3       1
     3    3    4       1
     4    3    5       1
     5    4    8       1
     6    5    6       1
     7    5    7       1
     8    7    8       1
     9    8    9       1
    10    9   10       1
    11    9   17       1
    12   10   11       2
    13   10   12       1
    14   12   13       1
    15   13   14       2
    16   13   15       1
    17   15   16       1
    18   15   17       2
    19    1   18       1
    20    2   19       1
    21    2   20       1
    22    3   21       1
    23    5   22       1
    24    6   23       1
    25    7   24       1
    26    7   25       1
    27    8   26       1
    28   12   27       1
    29   16   28       1
    30   16   29       1
    31   16   30       1
    32   17   31       1
@<TRIPOS>SUBSTRUCTURE
     1 THM214      1 GROUP             4 B     THM     0 **** THM B 214
