@<TRIPOS>MOLECULE
1u5a_BIK_1_ligand
   22    23     1     0     0
SMALL
NO_CHARGES


@<TRIPOS>ATOM
     1 O6          20.8230    15.9260     7.5870 O.3          1 BIK1001   0.0000
     2 C6          21.8680    16.2480     6.8590 C.ar         1 BIK1001   0.0000
     3 C7          22.9920    15.4180     6.8600 C.ar         1 BIK1001   0.0000
     4 C8          24.1360    15.7130     6.1060 C.ar         1 BIK1001   0.0000
     5 C8A         24.2000    16.8600     5.3140 C.ar         1 BIK1001   0.0000
     6 C4A         23.0980    17.7150     5.2910 C.ar         1 BIK1001   0.0000
     7 C5          21.9430    17.4100     6.0570 C.ar         1 BIK1001   0.0000
     8 C4          23.1890    18.8710     4.4890 C.ar         1 BIK1001   0.0000
     9 C1          25.3670    17.1500     4.5760 C.ar         1 BIK1001   0.0000
    10 C2          25.4590    18.2980     3.7710 C.ar         1 BIK1001   0.0000
    11 O2          26.5210    18.5090     3.0820 O.3          1 BIK1001   0.0000
    12 C3          24.3460    19.1600     3.7220 C.ar         1 BIK1001   0.0000
    13 C31         24.3940    20.4120     2.8620 C.2          1 BIK1001   0.0000
    14 O32         23.4070    21.2010     2.8010 O.co2        1 BIK1001   0.0000
    15 O31         25.4260    20.6360     2.2040 O.co2        1 BIK1001  -1.0000
    16 H1          20.8351    15.0912     8.1374 H            1 BIK1001   0.0000
    17 H2          22.9798    14.5871     7.4163 H            1 BIK1001   0.0000
    18 H3          24.9189    15.0915     6.1361 H            1 BIK1001   0.0000
    19 H4          21.1616    18.0333     6.0288 H            1 BIK1001   0.0000
    20 H5          22.4160    19.5048     4.4603 H            1 BIK1001   0.0000
    21 H6          26.1458    16.5248     4.6269 H            1 BIK1001   0.0000
    22 H7          26.5906    19.3247     2.5078 H            1 BIK1001   0.0000
@<TRIPOS>BOND
     1    1    2       1
     2    2    3      ar
     3    2    7      ar
     4    3    4      ar
     5    4    5      ar
     6    5    6      ar
     7    5    9      ar
     8    6    7      ar
     9    6    8      ar
    10    8   12      ar
    11    9   10      ar
    12   10   11       1
    13   10   12      ar
    14   12   13       1
    15   13   14      ar
    16   13   15      ar
    17    1   16       1
    18    3   17       1
    19    4   18       1
    20    7   19       1
    21    8   20       1
    22    9   21       1
    23   11   22       1
@<TRIPOS>SUBSTRUCTURE
     1 BIK1001     1 GROUP             4 A     BIK     0 **** BIK A1001
