@<TRIPOS>MOLECULE
3to6_LYS_CMC_1_ligand
  107   109     2     0     0
SMALL
NO_CHARGES


@<TRIPOS>ATOM
     1 N            9.5740     1.8500    18.7100 N.4          1 LYS500   1.0000
     2 CA           8.8980     2.5730    19.7060 C.3          1 LYS500   0.0000
     3 C            8.9830     1.7520    20.9210 C.2          1 LYS500   0.0000
     4 O            9.9090     0.9300    21.0220 O.2          1 LYS500   0.0000
     5 CB           7.4950     2.9900    19.2880 C.3          1 LYS500   0.0000
     6 CG           6.4410     1.9070    19.4470 C.3          1 LYS500   0.0000
     7 CD           5.0480     2.0150    18.7960 C.3          1 LYS500   0.0000
     8 CE           3.9460     3.0130    19.1960 C.3          1 LYS500   0.0000
     9 NZ           3.4850     3.1640    20.6050 N.am         1 LYS500   0.0000
    10 H1          10.0782     2.4831    18.1227 H            1 LYS500   0.0000
    11 H2          10.2134     1.2111    19.1378 H            1 LYS500   0.0000
    12 HA           9.4201     3.4092    19.8739 H            1 LYS500   0.0000
    13 H4           8.3087     1.8527    21.6526 H            1 LYS500   0.0000
    14 HB1          7.5232     3.2593    18.3253 H            1 LYS500   0.0000
    15 HB2          7.2233     3.7743    19.8457 H            1 LYS500   0.0000
    16 HG1          6.2831     1.8134    20.4300 H            1 LYS500   0.0000
    17 HG2          6.8498     1.0657    19.0934 H            1 LYS500   0.0000
    18 HD1          4.6359     1.1102    18.9031 H            1 LYS500   0.0000
    19 HD2          5.2225     2.1892    17.8269 H            1 LYS500   0.0000
    20 HE1          3.1373     2.7642    18.6629 H            1 LYS500   0.0000
    21 HE2          4.2692     3.9151    18.9100 H            1 LYS500   0.0000
    22 N1A        -18.5630    -0.8370    20.1160 N.ar         2 CMC600   0.0000
    23 C2A        -18.2840     0.2230    19.3610 C.ar         2 CMC600   0.0000
    24 N3A        -17.2190     0.9850    19.5160 N.ar         2 CMC600   0.0000
    25 C4A        -16.3470     0.7250    20.4990 C.ar         2 CMC600   0.0000
    26 C5A        -16.5720    -0.4100    21.3720 C.ar         2 CMC600   0.0000
    27 C6A        -17.7750    -1.2080    21.1140 C.ar         2 CMC600   0.0000
    28 N6A        -18.0820    -2.2630    21.8460 N.pl3        2 CMC600   0.0000
    29 N7A        -15.5720    -0.4490    22.2250 N.2          2 CMC600   0.0000
    30 C8A        -14.7930     0.5970    21.9080 C.2          2 CMC600   0.0000
    31 N9A        -15.2430     1.2830    20.8710 N.pl3        2 CMC600   0.0000
    32 C1B        -14.6550     2.4890    20.2660 C.3          2 CMC600   0.0000
    33 C2B        -14.3100     3.4690    21.3720 C.3          2 CMC600   0.0000
    34 O2B        -15.3290     4.3980    21.5680 O.3          2 CMC600   0.0000
    35 C3B        -13.0030     4.0980    20.9480 C.3          2 CMC600   0.0000
    36 O3B        -12.9660     5.4480    20.4800 O.3          2 CMC600   0.0000
    37 P3B        -13.9380     6.0190    19.3770 P.3          2 CMC600   0.0000
    38 O7A        -13.1660     6.4000    18.1380 O.co2        2 CMC600   0.0000
    39 O8A        -14.6610     7.1220    20.0470 O.co2        2 CMC600  -1.0000
    40 O9A        -14.7190     4.7650    19.3520 O.co2        2 CMC600  -1.0000
    41 C4B        -12.4760     3.1740    19.8740 C.3          2 CMC600   0.0000
    42 O4B        -13.4750     2.2260    19.5520 O.3          2 CMC600   0.0000
    43 C5B        -11.1850     2.5660    20.3800 C.3          2 CMC600   0.0000
    44 O5B        -11.1580     2.1150    21.7510 O.3          2 CMC600   0.0000
    45 P1A        -10.5250     0.8000    22.0950 P.3          2 CMC600   0.0000
    46 O1A        -10.3640     0.7100    23.4550 O.co2        2 CMC600   0.0000
    47 O2A        -11.3600    -0.0780    21.4390 O.co2        2 CMC600  -1.0000
    48 O3A         -9.1310     0.8290    21.4160 O.3          2 CMC600   0.0000
    49 P2A         -8.4620    -0.1850    20.4130 P.3          2 CMC600   0.0000
    50 O4A         -9.0560    -0.0250    19.1880 O.co2        2 CMC600   0.0000
    51 O5A         -8.5950    -1.4670    20.9290 O.co2        2 CMC600  -1.0000
    52 O6A         -6.9680     0.1680    20.3660 O.3          2 CMC600   0.0000
    53 CBP         -5.0020     1.3600    19.5640 C.3          2 CMC600   0.0000
    54 CCP         -6.4070     1.4470    20.1600 C.3          2 CMC600   0.0000
    55 CDP         -4.3250     2.7170    19.5030 C.3          2 CMC600   0.0000
    56 CEP         -4.1890     0.4470    20.4520 C.3          2 CMC600   0.0000
    57 CAP         -5.1420     0.7450    18.1810 C.3          2 CMC600   0.0000
    58 OAP         -5.7050     1.6710    17.3530 O.3          2 CMC600   0.0000
    59 C9P         -3.8750     0.2500    17.5530 C.2          2 CMC600   0.0000
    60 O9P         -3.4320    -0.7600    17.9170 O.2          2 CMC600   0.0000
    61 N8P         -3.3790     0.9850    16.5930 N.am         2 CMC600   0.0000
    62 C7P         -2.2220     0.6930    15.7980 C.3          2 CMC600   0.0000
    63 C6P         -0.8960     0.7410    16.5340 C.3          2 CMC600   0.0000
    64 C5P         -0.6850     2.0840    17.1740 C.2          2 CMC600   0.0000
    65 O5P         -0.8260     3.0900    16.5770 O.2          2 CMC600   0.0000
    66 N4P         -0.2900     2.0780    18.3820 N.am         2 CMC600   0.0000
    67 C3P         -0.0740     3.2350    19.1780 C.3          2 CMC600   0.0000
    68 C2P          1.2970     3.8270    19.0790 C.3          2 CMC600   0.0000
    69 S1P          1.3600     5.2460    20.0720 S.3          2 CMC600   0.0000
    70 C1           1.8660     4.3690    21.4780 C.3          2 CMC600   0.0000
    71 C2           3.1790     4.1380    21.2880 C.2          2 CMC600   0.0000
    72 O21          3.8150     4.8720    21.6650 O.2          2 CMC600   0.0000
    73 H2A        -18.9235     0.4567    18.6286 H            2 CMC600   0.0000
    74 H6A1       -17.4848    -2.5403    22.5987 H            2 CMC600   0.0000
    75 H6A2       -18.9117    -2.7848    21.6478 H            2 CMC600   0.0000
    76 H8A        -13.9580     0.8333    22.4050 H            2 CMC600   0.0000
    77 H1B        -15.3239     2.9083    19.6522 H            2 CMC600   0.0000
    78 H2B        -14.1655     2.9618    22.2216 H            2 CMC600   0.0000
    79 H19        -15.4772     4.9133    20.7239 H            2 CMC600   0.0000
    80 H3B        -12.3776     4.0362    21.7259 H            2 CMC600   0.0000
    81 H4B        -12.2751     3.7155    19.0577 H            2 CMC600   0.0000
    82 H5B1       -10.4677     3.2550    20.2763 H            2 CMC600   0.0000
    83 H5B2       -10.9767     1.7781    19.8005 H            2 CMC600   0.0000
    84 HCP1        -6.3577     1.9242    21.0374 H            2 CMC600   0.0000
    85 HCP2        -6.9933     1.9608    19.5337 H            2 CMC600   0.0000
    86 HDP1        -3.4117     2.6164    19.1084 H            2 CMC600   0.0000
    87 HDP2        -4.8677     3.3350    18.9341 H            2 CMC600   0.0000
    88 HDP3        -4.2496     3.0937    20.4263 H            2 CMC600   0.0000
    89 HEP1        -3.2607     0.3684    20.0885 H            2 CMC600   0.0000
    90 HEP2        -4.1538     0.8260    21.3767 H            2 CMC600   0.0000
    91 HEP3        -4.6144    -0.4576    20.4785 H            2 CMC600   0.0000
    92 HAP         -5.7725    -0.0280    18.2510 H            2 CMC600   0.0000
    93 H33         -6.7005     1.5797    17.3787 H            2 CMC600   0.0000
    94 H8P         -3.8562     1.8404    16.3918 H            2 CMC600   0.0000
    95 H7P1        -2.1848     1.3579    15.0520 H            2 CMC600   0.0000
    96 H7P2        -2.3317    -0.2263    15.4200 H            2 CMC600   0.0000
    97 H6P1        -0.1551     0.5677    15.8851 H            2 CMC600   0.0000
    98 H6P2        -0.8897     0.0360    17.2431 H            2 CMC600   0.0000
    99 H4P         -0.1176     1.1888    18.8057 H            2 CMC600   0.0000
   100 H3P1        -0.2367     2.9885    20.1334 H            2 CMC600   0.0000
   101 H3P2        -0.7335     3.9321    18.8966 H            2 CMC600   0.0000
   102 H2P1         1.4904     4.0719    18.1289 H            2 CMC600   0.0000
   103 H2P2         1.9742     3.1633    19.3966 H            2 CMC600   0.0000
   104 H44          1.3646     3.5072    21.5545 H            2 CMC600   0.0000
   105 H45          1.7205     4.9138    22.3038 H            2 CMC600   0.0000
   106 HZ           3.4093     2.2952    21.0943 H            2 CMC600   0.0000
   107 H47          8.9118     1.3408    18.1602 H            2 CMC600   0.0000
@<TRIPOS>BOND
     1    1    2       1
     2    2    5       1
     3    2    3       1
     4    5    6       1
     5    6    7       1
     6    7    8       1
     7    8    9       1
     8    3    4       2
     9    1   10       1
    10    1   11       1
    11    2   12       1
    12    3   13       1
    13    5   14       1
    14    5   15       1
    15    6   16       1
    16    6   17       1
    17    7   18       1
    18    7   19       1
    19    8   20       1
    20    8   21       1
    21   68  103       1
    22   70  105       1
    23   70  104       1
    24    9   71      am
    25   22   23      ar
    26   22   27      ar
    27   23   24      ar
    28   24   25      ar
    29   25   26      ar
    30   25   31       1
    31   26   27      ar
    32   26   29       1
    33   27   28       1
    34   29   30       2
    35   30   31       1
    36   31   32       1
    37   32   33       1
    38   32   42       1
    39   33   34       1
    40   33   35       1
    41   35   36       1
    42   35   41       1
    43   36   37       1
    44   37   38      ar
    45   37   39      ar
    46   37   40      ar
    47   41   42       1
    48   41   43       1
    49   43   44       1
    50   44   45       1
    51   45   46      ar
    52   45   47      ar
    53   45   48       1
    54   48   49       1
    55   49   50      ar
    56   49   51      ar
    57   49   52       1
    58   52   54       1
    59   53   54       1
    60   53   55       1
    61   53   56       1
    62   53   57       1
    63   57   58       1
    64   57   59       1
    65   59   60       2
    66   59   61      am
    67   61   62       1
    68   62   63       1
    69   63   64       1
    70   64   65       2
    71   64   66      am
    72   66   67       1
    73   67   68       1
    74   68   69       1
    75   69   70       1
    76   70   71       1
    77   71   72       2
    78   23   73       1
    79   28   74       1
    80   28   75       1
    81   30   76       1
    82   32   77       1
    83   33   78       1
    84   34   79       1
    85   35   80       1
    86    1  107       1
    87    9  106       1
    88   41   81       1
    89   43   82       1
    90   43   83       1
    91   68  102       1
    92   67  101       1
    93   54   84       1
    94   54   85       1
    95   55   86       1
    96   55   87       1
    97   55   88       1
    98   56   89       1
    99   56   90       1
   100   56   91       1
   101   57   92       1
   102   58   93       1
   103   61   94       1
   104   62   95       1
   105   62   96       1
   106   63   97       1
   107   63   98       1
   108   66   99       1
   109   67  100       1
@<TRIPOS>SUBSTRUCTURE
     1 LYS500      1 RESIDUE           4 B     LYS     0 **** LYS B 500
     2 CMC600     22 GROUP             4 B     CMC     0 **** CMC B 600
