@<TRIPOS>MOLECULE
3mzs_HC9_2_ligand
   75    78     1     0     0
SMALL
NO_CHARGES


@<TRIPOS>ATOM
     1 C1          44.4300   -16.5810     8.6350 C.3          1 HC9501   0.0000
     2 O1          44.5360   -15.3540    12.1290 O.3          1 HC9501   0.0000
     3 C2          43.9460   -16.3750    10.0850 C.3          1 HC9501   0.0000
     4 O2          46.4530   -16.0790    -1.4370 O.3          1 HC9501   0.0000
     5 C3          44.9820   -15.4870    10.7830 C.3          1 HC9501   0.0000
     6 C4          44.8450   -14.1200    10.0830 C.3          1 HC9501   0.0000
     7 C5          45.0390   -14.1340     8.5690 C.2          1 HC9501   0.0000
     8 C6          46.2120   -13.5890     8.1670 C.2          1 HC9501   0.0000
     9 C7          46.8040   -13.6810     6.7710 C.3          1 HC9501   0.0000
    10 C8          45.7940   -14.3460     5.8040 C.3          1 HC9501   0.0000
    11 C9          45.1380   -15.5850     6.4550 C.3          1 HC9501   0.0000
    12 C10         44.3910   -15.2960     7.7700 C.3          1 HC9501   0.0000
    13 C11         44.3200   -16.3920     5.4250 C.3          1 HC9501   0.0000
    14 C12         45.1340   -16.7740     4.1640 C.3          1 HC9501   0.0000
    15 C13         45.6180   -15.4820     3.4450 C.3          1 HC9501   0.0000
    16 C14         46.4900   -14.7820     4.4960 C.3          1 HC9501   0.0000
    17 C15         47.2460   -13.7340     3.6820 C.3          1 HC9501   0.0000
    18 C16         47.5100   -14.4540     2.3690 C.3          1 HC9501   0.0000
    19 C17         46.6600   -15.7080     2.3330 C.3          1 HC9501   0.0000
    20 C18         44.4560   -14.6530     2.9630 C.3          1 HC9501   0.0000
    21 C19         42.9520   -14.9760     7.4550 C.3          1 HC9501   0.0000
    22 C20         46.1940   -16.0780     0.8990 C.3          1 HC9501   0.0000
    23 C21         45.3850   -17.3860     0.8290 C.3          1 HC9501   0.0000
    24 C22         47.2290   -16.0310    -0.2340 C.3          1 HC9501   0.0000
    25 C23         48.2370   -17.1620    -0.2730 C.3          1 HC9501   0.0000
    26 C24         49.6600   -16.6850    -0.0420 C.3          1 HC9501   0.0000
    27 C25         50.6850   -17.2330    -1.0190 C.3          1 HC9501   0.0000
    28 C26         51.4220   -18.4520    -0.4670 C.3          1 HC9501   0.0000
    29 C27         51.7150   -16.1540    -1.3770 C.3          1 HC9501   0.0000
    30 H1          43.8464   -17.2687     8.2032 H            1 HC9501   0.0000
    31 H2          45.3727   -16.9134     8.6622 H            1 HC9501   0.0000
    32 H3          43.5380   -15.4101    12.1565 H            1 HC9501   0.0000
    33 H4          43.8786   -17.2563    10.5527 H            1 HC9501   0.0000
    34 H5          43.0521   -15.9268    10.0880 H            1 HC9501   0.0000
    35 H6          46.3216   -17.0317    -1.7111 H            1 HC9501   0.0000
    36 H7          45.9086   -15.8580    10.7212 H            1 HC9501   0.0000
    37 H8          45.5275   -13.5033    10.4753 H            1 HC9501   0.0000
    38 H9          43.9288   -13.7672    10.2729 H            1 HC9501   0.0000
    39 H10         46.7354   -13.0803     8.8506 H            1 HC9501   0.0000
    40 H11         47.6404   -14.2282     6.8024 H            1 HC9501   0.0000
    41 H12         47.0194   -12.7614     6.4424 H            1 HC9501   0.0000
    42 H13         45.0786   -13.6836     5.5816 H            1 HC9501   0.0000
    43 H14         45.8991   -16.1810     6.7109 H            1 HC9501   0.0000
    44 H15         43.5345   -15.8419     5.1416 H            1 HC9501   0.0000
    45 H16         43.9984   -17.2319     5.8622 H            1 HC9501   0.0000
    46 H17         44.5567   -17.3042     3.5430 H            1 HC9501   0.0000
    47 H18         45.9261   -17.3222     4.4325 H            1 HC9501   0.0000
    48 H19         47.1759   -15.4567     4.7686 H            1 HC9501   0.0000
    49 H20         48.1021   -13.4779     4.1309 H            1 HC9501   0.0000
    50 H21         46.6873   -12.9171     3.5389 H            1 HC9501   0.0000
    51 H22         48.4774   -14.6996     2.3069 H            1 HC9501   0.0000
    52 H23         47.2673   -13.8591     1.6027 H            1 HC9501   0.0000
    53 H24         47.2464   -16.4566     2.6423 H            1 HC9501   0.0000
    54 H25         44.7989   -13.8320     2.5066 H            1 HC9501   0.0000
    55 H26         43.9089   -15.1883     2.3194 H            1 HC9501   0.0000
    56 H27         43.8889   -14.3885     3.7431 H            1 HC9501   0.0000
    57 H28         42.9093   -14.1478     6.8962 H            1 HC9501   0.0000
    58 H29         42.5432   -15.7382     6.9530 H            1 HC9501   0.0000
    59 H30         42.4489   -14.8298     8.3068 H            1 HC9501   0.0000
    60 H31         45.5339   -15.3654     0.6614 H            1 HC9501   0.0000
    61 H32         45.1184   -17.5627    -0.1185 H            1 HC9501   0.0000
    62 H33         45.9457   -18.1431     1.1643 H            1 HC9501   0.0000
    63 H34         44.5654   -17.3018     1.3957 H            1 HC9501   0.0000
    64 H35         47.7173   -15.1592    -0.1946 H            1 HC9501   0.0000
    65 H36         48.1887   -17.6032    -1.1691 H            1 HC9501   0.0000
    66 H37         48.0021   -17.8249     0.4380 H            1 HC9501   0.0000
    67 H38         49.9332   -16.9581     0.8804 H            1 HC9501   0.0000
    68 H39         49.6681   -15.6874    -0.1104 H            1 HC9501   0.0000
    69 H40         50.2093   -17.5045    -1.8556 H            1 HC9501   0.0000
    70 H41         52.0837   -18.7759    -1.1432 H            1 HC9501   0.0000
    71 H42         51.9010   -18.1995     0.3737 H            1 HC9501   0.0000
    72 H43         50.7637   -19.1786    -0.2702 H            1 HC9501   0.0000
    73 H44         52.3819   -16.5301    -2.0202 H            1 HC9501   0.0000
    74 H45         51.2494   -15.3750    -1.7971 H            1 HC9501   0.0000
    75 H46         52.1851   -15.8535    -0.5471 H            1 HC9501   0.0000
@<TRIPOS>BOND
     1    1    3       1
     2    1   12       1
     3    2    5       1
     4    3    5       1
     5    4   24       1
     6    5    6       1
     7    6    7       1
     8    7    8       2
     9    7   12       1
    10    8    9       1
    11    9   10       1
    12   10   11       1
    13   10   16       1
    14   11   12       1
    15   11   13       1
    16   12   21       1
    17   13   14       1
    18   14   15       1
    19   15   16       1
    20   15   19       1
    21   15   20       1
    22   16   17       1
    23   17   18       1
    24   18   19       1
    25   19   22       1
    26   22   23       1
    27   22   24       1
    28   24   25       1
    29   25   26       1
    30   26   27       1
    31   27   28       1
    32   27   29       1
    33    1   30       1
    34    1   31       1
    35    2   32       1
    36    3   33       1
    37    3   34       1
    38    4   35       1
    39    5   36       1
    40    6   37       1
    41    6   38       1
    42    8   39       1
    43    9   40       1
    44    9   41       1
    45   10   42       1
    46   11   43       1
    47   13   44       1
    48   13   45       1
    49   14   46       1
    50   14   47       1
    51   16   48       1
    52   17   49       1
    53   17   50       1
    54   18   51       1
    55   18   52       1
    56   19   53       1
    57   20   54       1
    58   20   55       1
    59   20   56       1
    60   21   57       1
    61   21   58       1
    62   21   59       1
    63   22   60       1
    64   23   61       1
    65   23   62       1
    66   23   63       1
    67   24   64       1
    68   25   65       1
    69   25   66       1
    70   26   67       1
    71   26   68       1
    72   27   69       1
    73   28   70       1
    74   28   71       1
    75   28   72       1
    76   29   73       1
    77   29   74       1
    78   29   75       1
@<TRIPOS>SUBSTRUCTURE
     1 HC9501      1 GROUP             4 B     HC9     0 **** HC9 B 501
