@<TRIPOS>MOLECULE
4r87_COA_8_ligand
   80    82     1     0     0
SMALL
NO_CHARGES


@<TRIPOS>ATOM
     1 N1A         40.9160   159.8340    36.8430 N.ar         1 COA201   0.0000
     2 C2A         39.8670   160.2850    36.1220 C.ar         1 COA201   0.0000
     3 N3A         39.8760   160.3370    34.7750 N.ar         1 COA201   0.0000
     4 C4A         40.9640   159.9350    34.0560 C.ar         1 COA201   0.0000
     5 C5A         42.1490   159.4390    34.7780 C.ar         1 COA201   0.0000
     6 C6A         42.0650   159.3970    36.2570 C.ar         1 COA201   0.0000
     7 N6A         43.1060   158.9420    36.9920 N.pl3        1 COA201   0.0000
     8 N7A         43.0570   159.1080    33.8430 N.2          1 COA201   0.0000
     9 C8A         42.5180   159.3740    32.6220 C.2          1 COA201   0.0000
    10 N9A         41.2670   159.8710    32.7410 N.pl3        1 COA201   0.0000
    11 C1B         40.3580   160.3150    31.6230 C.3          1 COA201   0.0000
    12 C2B         39.8370   161.7200    31.9140 C.3          1 COA201   0.0000
    13 O2B         38.4790   161.8010    31.4790 O.3          1 COA201   0.0000
    14 C3B         40.7880   162.6700    31.1940 C.3          1 COA201   0.0000
    15 O3B         40.0960   163.6950    30.4990 O.3          1 COA201   0.0000
    16 P3B         39.4240   164.9450    31.2670 P.3          1 COA201   0.0000
    17 O7A         40.5840   165.7580    31.7830 O.co2        1 COA201   0.0000
    18 O8A         38.6750   164.3550    32.4310 O.co2        1 COA201  -1.0000
    19 O9A         38.6010   165.6020    30.1750 O.co2        1 COA201  -1.0000
    20 C4B         41.5490   161.8180    30.1950 C.3          1 COA201   0.0000
    21 O4B         41.0450   160.4860    30.3740 O.3          1 COA201   0.0000
    22 C5B         43.0950   161.8330    30.2500 C.3          1 COA201   0.0000
    23 O5B         43.7280   162.4690    31.3770 O.3          1 COA201   0.0000
    24 P1A         45.3470   162.5480    31.5770 P.3          1 COA201   0.0000
    25 O1A         45.5570   162.2890    33.0410 O.co2        1 COA201   0.0000
    26 O2A         45.8680   163.8240    30.9810 O.co2        1 COA201  -1.0000
    27 O3A         45.9470   161.3480    30.6510 O.3          1 COA201   0.0000
    28 P2A         47.2330   160.3520    30.8050 P.3          1 COA201   0.0000
    29 O4A         48.1980   160.8300    31.8390 O.co2        1 COA201   0.0000
    30 O5A         46.6160   158.9980    30.9520 O.co2        1 COA201  -1.0000
    31 O6A         47.9500   160.3640    29.3540 O.3          1 COA201   0.0000
    32 CBP         48.2960   159.2650    27.1690 C.3          1 COA201   0.0000
    33 CCP         47.3440   159.6930    28.2520 C.3          1 COA201   0.0000
    34 CDP         49.5720   159.9890    26.8770 C.3          1 COA201   0.0000
    35 CEP         47.7590   158.3850    26.0960 C.3          1 COA201   0.0000
    36 CAP         49.0140   158.1810    28.1000 C.3          1 COA201   0.0000
    37 OAP         48.1420   157.3070    28.8750 O.3          1 COA201   0.0000
    38 C9P         50.0380   157.2500    27.4240 C.2          1 COA201   0.0000
    39 O9P         51.2330   157.5960    27.3580 O.2          1 COA201   0.0000
    40 N8P         49.5500   156.0790    26.9210 N.am         1 COA201   0.0000
    41 C7P         50.3190   155.1480    26.1250 C.3          1 COA201   0.0000
    42 C6P         50.9630   155.7820    24.8850 C.3          1 COA201   0.0000
    43 C5P         49.9490   156.4370    23.9630 C.2          1 COA201   0.0000
    44 O5P         48.9420   155.8220    23.6330 O.2          1 COA201   0.0000
    45 N4P         50.2260   157.6740    23.5080 N.am         1 COA201   0.0000
    46 C3P         49.3860   158.3220    22.5090 C.3          1 COA201   0.0000
    47 C2P         49.6610   157.7270    21.1270 C.3          1 COA201   0.0000
    48 S1P         48.3620   158.0800    19.9240 S.3          1 COA201   0.0000
    49 H2A         39.0491   160.5934    36.6078 H            1 COA201   0.0000
    50 H6A1        43.9390   158.6266    36.5374 H            1 COA201   0.0000
    51 H6A2        43.0423   158.9212    37.9898 H            1 COA201   0.0000
    52 H8A         42.9860   159.2217    31.7515 H            1 COA201   0.0000
    53 H1B         39.5965   159.6754    31.5176 H            1 COA201   0.0000
    54 H2B         39.8800   161.8917    32.8982 H            1 COA201   0.0000
    55 H7          38.1239   162.7174    31.6636 H            1 COA201   0.0000
    56 H3B         41.4250   163.0748    31.8500 H            1 COA201   0.0000
    57 H4B         41.2799   162.1186    29.2800 H            1 COA201   0.0000
    58 H5B1        43.4168   162.2998    29.4263 H            1 COA201   0.0000
    59 H5B2        43.4018   160.8814    30.2352 H            1 COA201   0.0000
    60 HCP1        46.6690   160.3093    27.8463 H            1 COA201   0.0000
    61 HCP2        46.8832   158.8769    28.6007 H            1 COA201   0.0000
    62 HDP1        50.0471   159.5361    26.1226 H            1 COA201   0.0000
    63 HDP2        49.3682   160.9344    26.6228 H            1 COA201   0.0000
    64 HDP3        50.1537   159.9805    27.6903 H            1 COA201   0.0000
    65 HEP1        48.4862   158.1740    25.4428 H            1 COA201   0.0000
    66 HEP2        47.4177   157.5365    26.5004 H            1 COA201   0.0000
    67 HEP3        47.0122   158.8531    25.6236 H            1 COA201   0.0000
    68 HAP         49.5334   158.7073    28.7732 H            1 COA201   0.0000
    69 H21         47.9545   157.7259    29.7635 H            1 COA201   0.0000
    70 H8P         48.5965   155.8492    27.1159 H            1 COA201   0.0000
    71 H7P1        49.7114   154.4129    25.8243 H            1 COA201   0.0000
    72 H7P2        51.0448   154.7672    26.6979 H            1 COA201   0.0000
    73 H6P1        51.4441   155.0688    24.3752 H            1 COA201   0.0000
    74 H6P2        51.6172   156.4764    25.1848 H            1 COA201   0.0000
    75 H4P         51.0255   158.1583    23.8634 H            1 COA201   0.0000
    76 H3P1        49.5862   159.3016    22.4934 H            1 COA201   0.0000
    77 H3P2        48.4242   158.1820    22.7442 H            1 COA201   0.0000
    78 H2P1        49.7460   156.7350    21.2200 H            1 COA201   0.0000
    79 H2P2        50.5214   158.1046    20.7847 H            1 COA201   0.0000
    80 H1P         48.7598   158.1256    19.0076 H            1 COA201   0.0000
@<TRIPOS>BOND
     1    1    2      ar
     2    1    6      ar
     3    2    3      ar
     4    3    4      ar
     5    4    5      ar
     6    4   10       1
     7    5    6      ar
     8    5    8       1
     9    6    7       1
    10    8    9       2
    11    9   10       1
    12   10   11       1
    13   11   12       1
    14   11   21       1
    15   12   13       1
    16   12   14       1
    17   14   15       1
    18   14   20       1
    19   15   16       1
    20   16   17      ar
    21   16   18      ar
    22   16   19      ar
    23   20   21       1
    24   20   22       1
    25   22   23       1
    26   23   24       1
    27   24   25      ar
    28   24   26      ar
    29   24   27       1
    30   27   28       1
    31   28   29      ar
    32   28   30      ar
    33   28   31       1
    34   31   33       1
    35   32   33       1
    36   32   34       1
    37   32   35       1
    38   32   36       1
    39   36   37       1
    40   36   38       1
    41   38   39       2
    42   38   40      am
    43   40   41       1
    44   41   42       1
    45   42   43       1
    46   43   44       2
    47   43   45      am
    48   45   46       1
    49   46   47       1
    50   47   48       1
    51    2   49       1
    52    7   50       1
    53    7   51       1
    54    9   52       1
    55   11   53       1
    56   12   54       1
    57   13   55       1
    58   14   56       1
    59   48   80       1
    60   47   79       1
    61   20   57       1
    62   22   58       1
    63   22   59       1
    64   47   78       1
    65   46   77       1
    66   33   60       1
    67   33   61       1
    68   34   62       1
    69   34   63       1
    70   34   64       1
    71   35   65       1
    72   35   66       1
    73   35   67       1
    74   36   68       1
    75   37   69       1
    76   40   70       1
    77   41   71       1
    78   41   72       1
    79   42   73       1
    80   42   74       1
    81   45   75       1
    82   46   76       1
@<TRIPOS>SUBSTRUCTURE
     1 COA201      1 GROUP             4 H     COA     0 **** COA H 201
