@<TRIPOS>MOLECULE
2fju_GSP_1_ligand
   45    47     1     0     0
SMALL
NO_CHARGES


@<TRIPOS>ATOM
     1 PG          54.2420   106.0060    23.1390 P.3          1 GSP2466   0.0000
     2 O3B         53.3520   107.0240    24.0850 O.3          1 GSP2466   0.0000
     3 S1G         54.9010   107.2290    21.8740 S.2          1 GSP2466   0.0000
     4 O2G         55.1190   105.3940    24.1550 O.co2        1 GSP2466  -1.0000
     5 O3G         53.3630   105.1390    22.2950 O.co2        1 GSP2466  -1.0000
     6 PB          52.4860   106.5310    25.4440 P.3          1 GSP2466   0.0000
     7 O1B         51.2580   106.0380    24.8190 O.co2        1 GSP2466   0.0000
     8 O2B         53.1040   105.5660    26.3980 O.co2        1 GSP2466  -1.0000
     9 PA          52.7620   108.2330    27.7060 P.3          1 GSP2466   0.0000
    10 O1A         52.2660   107.3200    28.7700 O.co2        1 GSP2466   0.0000
    11 O2A         54.2180   108.4730    27.5050 O.co2        1 GSP2466  -1.0000
    12 O3A         52.2070   107.8590    26.2970 O.3          1 GSP2466   0.0000
    13 O5'         52.0380   109.7030    27.8670 O.3          1 GSP2466   0.0000
    14 C5'         52.3150   110.8000    26.9260 C.3          1 GSP2466   0.0000
    15 C4'         51.9630   112.1000    27.6100 C.3          1 GSP2466   0.0000
    16 O4'         50.6410   111.9920    28.2730 O.3          1 GSP2466   0.0000
    17 C3'         52.9700   112.4390    28.7620 C.3          1 GSP2466   0.0000
    18 O3'         53.3260   113.8410    28.6250 O.3          1 GSP2466   0.0000
    19 C2'         52.1490   112.1920    30.0880 C.3          1 GSP2466   0.0000
    20 O2'         52.5450   113.0510    31.1690 O.3          1 GSP2466   0.0000
    21 C1'         50.6620   112.4350    29.6520 C.3          1 GSP2466   0.0000
    22 N9          49.6830   111.5590    30.3670 N.pl3        1 GSP2466   0.0000
    23 C8          49.5630   110.1850    30.4840 C.2          1 GSP2466   0.0000
    24 N7          48.5710   109.7560    31.2100 N.2          1 GSP2466   1.0000
    25 C5          47.9620   110.9480    31.6240 C.2          1 GSP2466   0.0000
    26 C6          46.7940   111.1080    32.4680 C.2          1 GSP2466   0.0000
    27 O6          46.1780   110.1530    32.9390 O.2          1 GSP2466   0.0000
    28 N1          46.5070   112.4720    32.6410 N.pl3        1 GSP2466   0.0000
    29 C2          47.2100   113.5630    32.1030 C.2          1 GSP2466   0.0000
    30 N2          46.8120   114.7990    32.3590 N.pl3        1 GSP2466   0.0000
    31 N3          48.3170   113.3990    31.3070 N.2          1 GSP2466   0.0000
    32 C4          48.6330   112.0580    31.1110 C.2          1 GSP2466   0.0000
    33 H5'1        51.7597   110.6887    26.1018 H            1 GSP2466   0.0000
    34 H5'2        53.2838   110.7982    26.6780 H            1 GSP2466   0.0000
    35 H4'         51.9485   112.8433    26.9412 H            1 GSP2466   0.0000
    36 H3'         53.7793   111.8530    28.7213 H            1 GSP2466   0.0000
    37 H5          53.9703   114.0934    29.3470 H            1 GSP2466   0.0000
    38 H2'         52.2576   111.2385    30.3691 H            1 GSP2466   0.0000
    39 H7          51.7598   113.2209    31.7645 H            1 GSP2466   0.0000
    40 H1'         50.4122   113.4002    29.7291 H            1 GSP2466   0.0000
    41 H9          50.2012   109.5582    30.0369 H            1 GSP2466   0.0000
    42 H10         45.7145   112.6908    33.2102 H            1 GSP2466   0.0000
    43 H11         47.3129   115.5751    31.9757 H            1 GSP2466   0.0000
    44 H12         46.0104   114.9568    32.9357 H            1 GSP2466   0.0000
    45 H13         48.3097   108.8137    31.4193 H            1 GSP2466   0.0000
@<TRIPOS>BOND
     1    1    2       1
     2    1    3       2
     3    1    4      ar
     4    1    5      ar
     5    2    6       1
     6    6    7      ar
     7    6    8      ar
     8    6   12       1
     9    9   10      ar
    10    9   11      ar
    11    9   12       1
    12    9   13       1
    13   13   14       1
    14   14   15       1
    15   15   16       1
    16   15   17       1
    17   16   21       1
    18   17   18       1
    19   17   19       1
    20   19   20       1
    21   19   21       1
    22   21   22       1
    23   22   23       1
    24   22   32       1
    25   23   24       2
    26   24   25       1
    27   25   26       1
    28   25   32       2
    29   26   27       2
    30   26   28       1
    31   28   29       1
    32   29   30       1
    33   29   31       2
    34   31   32       1
    35   30   44       1
    36   30   43       1
    37   28   42       1
    38   23   41       1
    39   14   33       1
    40   14   34       1
    41   15   35       1
    42   17   36       1
    43   18   37       1
    44   19   38       1
    45   20   39       1
    46   21   40       1
    47   24   45       1
@<TRIPOS>SUBSTRUCTURE
     1 GSP2466     1 GROUP             4 A     GSP     0 **** GSP A2466
