@<TRIPOS>MOLECULE
5dbv_COA_1_ligand
   80    82     1     0     0
SMALL
NO_CHARGES


@<TRIPOS>ATOM
     1 N1A        -26.5610    20.5630    16.7370 N.ar         1 COA503   0.0000
     2 C2A        -27.5270    21.5060    16.4760 C.ar         1 COA503   0.0000
     3 N3A        -28.7510    21.1200    16.0070 N.ar         1 COA503   0.0000
     4 C4A        -29.0080    19.7870    15.8000 C.ar         1 COA503   0.0000
     5 C5A        -28.0590    18.8690    16.0550 C.ar         1 COA503   0.0000
     6 C6A        -26.8300    19.2550    16.5160 C.ar         1 COA503   0.0000
     7 N6A        -25.5670    18.7320    16.9230 N.pl3        1 COA503   0.0000
     8 N7A        -28.5300    17.6330    15.7740 N.2          1 COA503   0.0000
     9 C8A        -29.8020    17.7820    15.3340 C.2          1 COA503   0.0000
    10 N9A        -30.1030    19.1050    15.3410 N.pl3        1 COA503   0.0000
    11 C1B        -31.3020    19.7800    14.9740 C.3          1 COA503   0.0000
    12 C2B        -32.1120    19.0800    14.1910 C.3          1 COA503   0.0000
    13 O2B        -31.8970    19.3630    12.7740 O.3          1 COA503   0.0000
    14 C3B        -33.5970    19.5340    14.6690 C.3          1 COA503   0.0000
    15 O3B        -33.9360    20.7710    14.0380 O.3          1 COA503   0.0000
    16 P3B        -35.2790    20.8710    13.1550 P.3          1 COA503   0.0000
    17 O7A        -36.4440    21.0490    14.0980 O.co2        1 COA503   0.0000
    18 O8A        -35.1890    22.0660    12.2370 O.co2        1 COA503  -1.0000
    19 O9A        -35.4390    19.6150    12.3270 O.co2        1 COA503  -1.0000
    20 C4B        -33.5440    19.6980    16.0250 C.3          1 COA503   0.0000
    21 O4B        -32.0960    20.0660    16.3220 O.3          1 COA503   0.0000
    22 C5B        -33.8870    18.4240    16.7940 C.3          1 COA503   0.0000
    23 O5B        -33.1470    17.3620    16.2110 O.3          1 COA503   0.0000
    24 P1A        -33.4270    15.8120    16.5200 P.3          1 COA503   0.0000
    25 O1A        -32.2600    14.9890    15.9900 O.co2        1 COA503   0.0000
    26 O2A        -34.7390    15.4100    15.8480 O.co2        1 COA503  -1.0000
    27 O3A        -33.5210    15.6630    18.0910 O.3          1 COA503   0.0000
    28 P2A        -34.6420    14.8620    18.8190 P.3          1 COA503   0.0000
    29 O4A        -34.3400    14.8560    20.2990 O.co2        1 COA503   0.0000
    30 O5A        -35.9990    15.4920    18.5220 O.co2        1 COA503  -1.0000
    31 O6A        -34.6530    13.3360    18.2080 O.3          1 COA503   0.0000
    32 CBP        -33.6030    11.2230    17.6750 C.3          1 COA503   0.0000
    33 CCP        -33.7650    12.3390    18.7300 C.3          1 COA503   0.0000
    34 CDP        -32.5580    10.1920    18.1940 C.3          1 COA503   0.0000
    35 CEP        -34.9660    10.5250    17.4340 C.3          1 COA503   0.0000
    36 CAP        -33.1010    11.9130    16.3370 C.3          1 COA503   0.0000
    37 OAP        -31.9120    12.6160    16.5650 O.3          1 COA503   0.0000
    38 C9P        -32.8610    10.9250    15.2710 C.2          1 COA503   0.0000
    39 O9P        -33.7740    10.3380    14.7880 O.2          1 COA503   0.0000
    40 N8P        -31.5040    10.7040    14.8050 N.am         1 COA503   0.0000
    41 C7P        -31.2430     9.7530    13.7320 C.3          1 COA503   0.0000
    42 C6P        -30.2340    10.3850    12.7090 C.3          1 COA503   0.0000
    43 C5P        -29.2130     9.2590    12.4270 C.2          1 COA503   0.0000
    44 O5P        -28.0160     9.4830    12.4540 O.2          1 COA503   0.0000
    45 N4P        -29.7470     7.9490    12.1520 N.am         1 COA503   0.0000
    46 C3P        -28.8970     6.8550    11.9380 C.3          1 COA503   0.0000
    47 C2P        -28.9330     6.1140    13.2970 C.3          1 COA503   0.0000
    48 S1P        -30.1230     4.7830    13.2870 S.3          1 COA503   0.0000
    49 H2A        -27.3337    22.4750    16.6295 H            1 COA503   0.0000
    50 H6A1       -25.3998    17.7466    16.8902 H            1 COA503   0.0000
    51 H6A2       -24.8487    19.3507    17.2412 H            1 COA503   0.0000
    52 H8A        -30.4145    17.0435    15.0522 H            1 COA503   0.0000
    53 H1B        -31.0748    20.6467    14.5299 H            1 COA503   0.0000
    54 H2B        -31.9862    18.1029    14.3628 H            1 COA503   0.0000
    55 H7         -32.7407    19.7207    12.3738 H            1 COA503   0.0000
    56 H3B        -34.2666    18.8302    14.4319 H            1 COA503   0.0000
    57 H4B        -34.1513    20.4416    16.3047 H            1 COA503   0.0000
    58 H5B1       -34.8667    18.2362    16.7241 H            1 COA503   0.0000
    59 H5B2       -33.6353    18.5277    17.7562 H            1 COA503   0.0000
    60 HCP1       -34.1465    11.9550    19.5708 H            1 COA503   0.0000
    61 HCP2       -32.8745    12.7499    18.9253 H            1 COA503   0.0000
    62 HDP1       -32.4445     9.4636    17.5184 H            1 COA503   0.0000
    63 HDP2       -31.6815    10.6506    18.3402 H            1 COA503   0.0000
    64 HDP3       -32.8769     9.7997    19.0568 H            1 COA503   0.0000
    65 HEP1       -34.8549     9.8037    16.7503 H            1 COA503   0.0000
    66 HEP2       -35.2917    10.1249    18.2907 H            1 COA503   0.0000
    67 HEP3       -35.6307    11.1961    17.1056 H            1 COA503   0.0000
    68 HAP        -33.8000    12.5570    16.0262 H            1 COA503   0.0000
    69 H21        -32.0499    13.5828    16.3498 H            1 COA503   0.0000
    70 H8P        -30.7460    11.2059    15.2216 H            1 COA503   0.0000
    71 H7P1       -32.0994     9.5345    13.2642 H            1 COA503   0.0000
    72 H7P2       -30.8499     8.9172    14.1153 H            1 COA503   0.0000
    73 H6P1       -29.7801    11.1823    13.1068 H            1 COA503   0.0000
    74 H6P2       -30.7046    10.6541    11.8687 H            1 COA503   0.0000
    75 H4P        -30.7377     7.8186    12.1133 H            1 COA503   0.0000
    76 H3P1       -27.9697     7.1581    11.7184 H            1 COA503   0.0000
    77 H3P2       -29.2402     6.2719    11.2016 H            1 COA503   0.0000
    78 H2P1       -29.1796     6.7647    14.0152 H            1 COA503   0.0000
    79 H2P2       -28.0261     5.7373    13.4856 H            1 COA503   0.0000
    80 H1P        -30.2067     4.4177    12.3599 H            1 COA503   0.0000
@<TRIPOS>BOND
     1    1    2      ar
     2    1    6      ar
     3    2    3      ar
     4    3    4      ar
     5    4    5      ar
     6    4   10       1
     7    5    6      ar
     8    5    8       1
     9    6    7       1
    10    8    9       2
    11    9   10       1
    12   10   11       1
    13   11   12       1
    14   11   21       1
    15   12   13       1
    16   12   14       1
    17   14   15       1
    18   14   20       1
    19   15   16       1
    20   16   17      ar
    21   16   18      ar
    22   16   19      ar
    23   20   21       1
    24   20   22       1
    25   22   23       1
    26   23   24       1
    27   24   25      ar
    28   24   26      ar
    29   24   27       1
    30   27   28       1
    31   28   29      ar
    32   28   30      ar
    33   28   31       1
    34   31   33       1
    35   32   33       1
    36   32   34       1
    37   32   35       1
    38   32   36       1
    39   36   37       1
    40   36   38       1
    41   38   39       2
    42   38   40      am
    43   40   41       1
    44   41   42       1
    45   42   43       1
    46   43   44       2
    47   43   45      am
    48   45   46       1
    49   46   47       1
    50   47   48       1
    51    2   49       1
    52    7   50       1
    53    7   51       1
    54    9   52       1
    55   11   53       1
    56   12   54       1
    57   13   55       1
    58   14   56       1
    59   48   80       1
    60   47   79       1
    61   20   57       1
    62   22   58       1
    63   22   59       1
    64   47   78       1
    65   46   77       1
    66   33   60       1
    67   33   61       1
    68   34   62       1
    69   34   63       1
    70   34   64       1
    71   35   65       1
    72   35   66       1
    73   35   67       1
    74   36   68       1
    75   37   69       1
    76   40   70       1
    77   41   71       1
    78   41   72       1
    79   42   73       1
    80   42   74       1
    81   45   75       1
    82   46   76       1
@<TRIPOS>SUBSTRUCTURE
     1 COA503      1 GROUP             4 A     COA     0 **** COA A 503
