@<TRIPOS>MOLECULE
2vqj_TFG_1_ligand
   45    48     1     0     0
SMALL
NO_CHARGES


@<TRIPOS>ATOM
     1 C14         17.4590    74.0380    43.3590 C.ar         1 TFG1414   0.0000
     2 C15         17.1750    74.2930    44.6940 C.ar         1 TFG1414   0.0000
     3 C16         17.1960    75.5990    45.1830 C.ar         1 TFG1414   0.0000
     4 C17         17.5070    76.6620    44.3370 C.ar         1 TFG1414   0.0000
     5 C18         17.7910    76.4020    42.9980 C.ar         1 TFG1414   0.0000
     6 C13         17.7600    75.0950    42.5000 C.ar         1 TFG1414   0.0000
     7 C19         18.0830    74.8260    41.1680 C.2          1 TFG1414   0.0000
     8 C12         17.6760    73.8730    40.3310 C.2          1 TFG1414   0.0000
     9 N3          18.3120    74.0180    39.1600 N.2          1 TFG1414   0.0000
    10 C11         19.1490    75.0510    39.2300 C.2          1 TFG1414   0.0000
    11 C10         20.1030    75.6110    38.1580 C.3          1 TFG1414   0.0000
    12 N2          19.0310    75.5890    40.5150 N.pl3        1 TFG1414   0.0000
    13 C9          19.7830    76.7560    40.9870 C.3          1 TFG1414   0.0000
    14 C8          20.9710    76.9710    40.1040 C.3          1 TFG1414   0.0000
    15 N1          20.5870    76.8860    38.6760 N.am         1 TFG1414   0.0000
    16 C7          20.6840    78.0160    37.9880 C.2          1 TFG1414   0.0000
    17 O1          21.1230    78.9710    38.6340 O.2          1 TFG1414   0.0000
    18 C4          20.4730    78.2510    36.4970 C.2          1 TFG1414   0.0000
    19 S1          20.1870    79.7750    35.8800 S.3          1 TFG1414   0.0000
    20 C3          20.6420    77.4050    35.4750 C.2          1 TFG1414   0.0000
    21 C2          20.4860    77.9730    34.2490 C.2          1 TFG1414   0.0000
    22 C1          20.2200    79.2970    34.2650 C.2          1 TFG1414   0.0000
    23 C5          20.0180    80.2860    33.0780 C.3          1 TFG1414   0.0000
    24 C6          19.6110    79.6320    31.7570 C.3          1 TFG1414   0.0000
    25 F1          20.4430    78.6420    31.4460 F            1 TFG1414   0.0000
    26 F2          18.3690    79.2160    31.8450 F            1 TFG1414   0.0000
    27 F3          19.6670    80.5430    30.8120 F            1 TFG1414   0.0000
    28 O3          19.0660    81.3140    33.4170 O.3          1 TFG1414   0.0000
    29 O2          21.2750    80.9910    32.8330 O.3          1 TFG1414   0.0000
    30 H1          17.4478    73.0993    43.0144 H            1 TFG1414   0.0000
    31 H2          16.9541    73.5357    45.3086 H            1 TFG1414   0.0000
    32 H3          16.9869    75.7735    46.1452 H            1 TFG1414   0.0000
    33 H4          17.5261    77.5988    44.6864 H            1 TFG1414   0.0000
    34 H5          18.0197    77.1587    42.3856 H            1 TFG1414   0.0000
    35 H6          17.0039    73.1633    40.5423 H            1 TFG1414   0.0000
    36 H7          19.6146    75.7490    37.2964 H            1 TFG1414   0.0000
    37 H8          20.8673    74.9831    38.0111 H            1 TFG1414   0.0000
    38 H9          20.0891    76.5984    41.9258 H            1 TFG1414   0.0000
    39 H10         19.1958    77.5650    40.9593 H            1 TFG1414   0.0000
    40 H11         21.6571    76.2708    40.3013 H            1 TFG1414   0.0000
    41 H12         21.3559    77.8757    40.2867 H            1 TFG1414   0.0000
    42 H13         20.8639    76.4382    35.6013 H            1 TFG1414   0.0000
    43 H14         20.5625    77.4499    33.4002 H            1 TFG1414   0.0000
    44 H15         18.4020    80.9510    34.0707 H            1 TFG1414   0.0000
    45 H16         22.0424    80.4013    33.0847 H            1 TFG1414   0.0000
@<TRIPOS>BOND
     1    1    2      ar
     2    1    6      ar
     3    2    3      ar
     4    3    4      ar
     5    4    5      ar
     6    5    6      ar
     7    6    7       1
     8    7    8       2
     9    7   12       1
    10    8    9       1
    11    9   10       2
    12   10   11       1
    13   10   12       1
    14   11   15       1
    15   12   13       1
    16   13   14       1
    17   14   15       1
    18   15   16      am
    19   16   17       2
    20   16   18       1
    21   18   19       1
    22   18   20       2
    23   19   22       1
    24   20   21       1
    25   21   22       2
    26   22   23       1
    27   23   24       1
    28   23   28       1
    29   23   29       1
    30   24   25       1
    31   24   26       1
    32   24   27       1
    33    1   30       1
    34    2   31       1
    35    3   32       1
    36    4   33       1
    37    5   34       1
    38    8   35       1
    39   11   36       1
    40   11   37       1
    41   13   38       1
    42   13   39       1
    43   14   40       1
    44   14   41       1
    45   20   42       1
    46   21   43       1
    47   28   44       1
    48   29   45       1
@<TRIPOS>SUBSTRUCTURE
     1 TFG1414     1 GROUP             4 A     TFG     0 **** TFG A1414
