@<TRIPOS>MOLECULE
3a58_GNP_3_ligand
   46    48     1     0     0
SMALL
NO_CHARGES


@<TRIPOS>ATOM
     1 PG          59.6970     8.1050     5.1220 P.3          1 GNP301   0.0000
     2 O1G         60.7400     9.1890     4.9770 O.co2        1 GNP301   0.0000
     3 O2G         59.5370     7.2370     3.8850 O.co2        1 GNP301  -1.0000
     4 O3G         60.1620     7.3230     6.3200 O.co2        1 GNP301  -1.0000
     5 N3B         58.2170     8.7040     5.4780 N.3          1 GNP301   0.0000
     6 PB          57.5210     9.8700     4.6020 P.3          1 GNP301   0.0000
     7 O1B         58.3950    11.0670     4.6300 O.co2        1 GNP301   0.0000
     8 O2B         57.2500     9.2530     3.2750 O.co2        1 GNP301  -1.0000
     9 O3A         56.1940    10.2960     5.2010 O.3          1 GNP301   0.0000
    10 PA          54.9940     9.3770     5.3120 P.3          1 GNP301   0.0000
    11 O1A         54.2020     9.5390     4.0780 O.co2        1 GNP301   0.0000
    12 O2A         55.4460     7.9950     5.5870 O.co2        1 GNP301  -1.0000
    13 O5'         54.0620     9.8680     6.4930 O.3          1 GNP301   0.0000
    14 C5'         54.4040     9.7320     7.8730 C.3          1 GNP301   0.0000
    15 C4'         53.1660     9.5150     8.7550 C.3          1 GNP301   0.0000
    16 O4'         52.4300    10.7510     8.9790 O.3          1 GNP301   0.0000
    17 C3'         52.1110     8.5170     8.2330 C.3          1 GNP301   0.0000
    18 O3'         51.5310     7.7800     9.3200 O.3          1 GNP301   0.0000
    19 C2'         51.0830     9.4060     7.5610 C.3          1 GNP301   0.0000
    20 O2'         49.7720     8.9070     7.5760 O.3          1 GNP301   0.0000
    21 C1'         51.1780    10.7240     8.3250 C.3          1 GNP301   0.0000
    22 N9          50.9260    11.9120     7.4980 N.pl3        1 GNP301   0.0000
    23 C8          51.4310    12.2080     6.2470 C.2          1 GNP301   0.0000
    24 N7          51.0040    13.3400     5.7700 N.2          1 GNP301   1.0000
    25 C5          50.1650    13.8360     6.7530 C.2          1 GNP301   0.0000
    26 C6          49.3960    15.0440     6.8050 C.2          1 GNP301   0.0000
    27 O6          49.3170    15.9220     5.9540 O.2          1 GNP301   0.0000
    28 N1          48.6610    15.1830     8.0080 N.pl3        1 GNP301   0.0000
    29 C2          48.6650    14.2540     9.0510 C.2          1 GNP301   0.0000
    30 N2          47.9100    14.5440    10.1300 N.pl3        1 GNP301   0.0000
    31 N3          49.3810    13.1160     9.0080 N.2          1 GNP301   0.0000
    32 C4          50.1080    12.9690     7.8340 C.2          1 GNP301   0.0000
    33 H3B         57.5891     7.9261     5.4545 H            1 GNP301   0.0000
    34 H5'1        54.8721    10.5633     8.1728 H            1 GNP301   0.0000
    35 H5'2        55.0163     8.9484     7.9780 H            1 GNP301   0.0000
    36 H4'         53.4817     9.1847     9.6445 H            1 GNP301   0.0000
    37 H3'         52.5205     7.8928     7.5677 H            1 GNP301   0.0000
    38 H6          50.5900     7.5319     9.0899 H            1 GNP301   0.0000
    39 H2'         51.3596     9.5609     6.6126 H            1 GNP301   0.0000
    40 H8          49.6178     8.3505     6.7596 H            1 GNP301   0.0000
    41 H1'         50.4745    10.7045     9.0354 H            1 GNP301   0.0000
    42 H10         52.0638    11.6097     5.7555 H            1 GNP301   0.0000
    43 H11         48.1001    16.0035     8.1182 H            1 GNP301   0.0000
    44 H12         47.8791    13.9109    10.9034 H            1 GNP301   0.0000
    45 H13         47.3810    15.3922    10.1567 H            1 GNP301   0.0000
    46 H14         51.2309    13.7583     4.8905 H            1 GNP301   0.0000
@<TRIPOS>BOND
     1    1    2      ar
     2    1    3      ar
     3    1    4      ar
     4    1    5       1
     5    5    6       1
     6    6    7      ar
     7    6    8      ar
     8    6    9       1
     9    9   10       1
    10   10   11      ar
    11   10   12      ar
    12   10   13       1
    13   13   14       1
    14   14   15       1
    15   15   16       1
    16   15   17       1
    17   16   21       1
    18   17   18       1
    19   17   19       1
    20   19   20       1
    21   19   21       1
    22   21   22       1
    23   22   23       1
    24   22   32       1
    25   23   24       2
    26   24   25       1
    27   25   26       1
    28   25   32       2
    29   26   27       2
    30   26   28       1
    31   28   29       1
    32   29   30       1
    33   29   31       2
    34   31   32       1
    35   30   45       1
    36   30   44       1
    37    5   33       1
    38   28   43       1
    39   23   42       1
    40   14   34       1
    41   14   35       1
    42   15   36       1
    43   17   37       1
    44   18   38       1
    45   19   39       1
    46   20   40       1
    47   21   41       1
    48   24   46       1
@<TRIPOS>SUBSTRUCTURE
     1 GNP301      1 GROUP             4 F     GNP     0 **** GNP F 301
