@<TRIPOS>MOLECULE
2ptm_CMP_1_ligand
   34    37     1     0     0
SMALL
NO_CHARGES


@<TRIPOS>ATOM
     1 P           23.6640    35.4540    21.7680 P.3          1 CMP401   0.0000
     2 O1P         24.4160    35.9980    23.0230 O.3          1 CMP401   0.0000
     3 O2P         22.2360    35.7130    21.6720 O.2          1 CMP401   0.0000
     4 O5'         24.5990    36.0120    20.5840 O.3          1 CMP401   0.0000
     5 C5'         25.8020    35.4320    20.1380 C.3          1 CMP401   0.0000
     6 C4'         25.7170    33.9170    20.0120 C.3          1 CMP401   0.0000
     7 O4'         26.9570    33.2220    19.9410 O.3          1 CMP401   0.0000
     8 C3'         25.1620    33.3920    21.3140 C.3          1 CMP401   0.0000
     9 O3'         23.9530    33.8600    21.8060 O.3          1 CMP401   0.0000
    10 C2'         25.3190    31.8720    21.2520 C.3          1 CMP401   0.0000
    11 O2'         24.3720    31.3500    20.3310 O.3          1 CMP401   0.0000
    12 C1'         26.6760    31.8770    20.4680 C.3          1 CMP401   0.0000
    13 N9          27.7770    31.4990    21.3060 N.pl3        1 CMP401   0.0000
    14 C8          28.4220    32.2400    22.3280 C.2          1 CMP401   0.0000
    15 N7          29.4570    31.5780    22.8720 N.2          1 CMP401   0.0000
    16 C5          29.4930    30.3460    22.2090 C.ar         1 CMP401   0.0000
    17 C6          30.3120    29.1840    22.3050 C.ar         1 CMP401   0.0000
    18 N6          31.3530    29.1340    23.1970 N.pl3        1 CMP401   0.0000
    19 N1          30.0470    28.1190    21.4890 N.ar         1 CMP401   0.0000
    20 C2          29.0280    28.2090    20.6050 C.ar         1 CMP401   0.0000
    21 N3          28.1750    29.2340    20.3910 N.ar         1 CMP401   0.0000
    22 C4          28.4490    30.2850    21.2010 C.ar         1 CMP401   0.0000
    23 H1P         23.7696    36.4758    23.6178 H            1 CMP401   0.0000
    24 H5'1        26.5262    35.6581    20.7895 H            1 CMP401   0.0000
    25 H5'2        26.0281    35.8147    19.2422 H            1 CMP401   0.0000
    26 H4'         25.1252    33.6600    19.2480 H            1 CMP401   0.0000
    27 H3'         25.8320    33.6791    21.9986 H            1 CMP401   0.0000
    28 H2'         25.3444    31.4123    22.1397 H            1 CMP401   0.0000
    29 H7          23.5226    31.1343    20.8126 H            1 CMP401   0.0000
    30 H1'         26.6129    31.2348    19.7041 H            1 CMP401   0.0000
    31 H9          28.1377    33.1554    22.6130 H            1 CMP401   0.0000
    32 H10         31.9217    28.3136    23.2563 H            1 CMP401   0.0000
    33 H11         31.5432    29.9180    23.7879 H            1 CMP401   0.0000
    34 H12         28.8860    27.4040    20.0290 H            1 CMP401   0.0000
@<TRIPOS>BOND
     1    1    2       1
     2    1    3       2
     3    1    4       1
     4    1    9       1
     5    4    5       1
     6    5    6       1
     7    6    7       1
     8    6    8       1
     9    7   12       1
    10    8    9       1
    11    8   10       1
    12   10   11       1
    13   10   12       1
    14   12   13       1
    15   13   14       1
    16   13   22       1
    17   14   15       2
    18   15   16       1
    19   16   17      ar
    20   16   22      ar
    21   17   18       1
    22   17   19      ar
    23   19   20      ar
    24   20   21      ar
    25   21   22      ar
    26    2   23       1
    27    5   24       1
    28    5   25       1
    29    6   26       1
    30    8   27       1
    31   10   28       1
    32   11   29       1
    33   12   30       1
    34   14   31       1
    35   18   32       1
    36   18   33       1
    37   20   34       1
@<TRIPOS>SUBSTRUCTURE
     1 CMP401      1 GROUP             4 A     CMP     0 **** CMP A 401
