@<TRIPOS>MOLECULE
4wq4_ATP_1_ligand
   43    45     1     0     0
SMALL
NO_CHARGES


@<TRIPOS>ATOM
     1 PG           4.6160   -37.8710    24.0020 P.3          1 ATP402   0.0000
     2 O1G          3.4870   -37.5450    23.0510 O.co2        1 ATP402   0.0000
     3 O2G          5.6190   -36.7540    24.3290 O.co2        1 ATP402  -1.0000
     4 O3G          4.1820   -38.7820    25.1220 O.co2        1 ATP402  -1.0000
     5 PB           6.6780   -39.8250    23.7100 P.3          1 ATP402   0.0000
     6 O1B          6.1840   -41.2560    23.6060 O.co2        1 ATP402   0.0000
     7 O2B          7.3810   -39.3550    24.9840 O.co2        1 ATP402  -1.0000
     8 O3B          5.4910   -38.8820    23.1370 O.3          1 ATP402   0.0000
     9 PA           8.9910   -38.8920    22.4110 P.3          1 ATP402   0.0000
    10 O1A          8.8220   -37.6230    21.6550 O.co2        1 ATP402   0.0000
    11 O2A          9.5480   -38.9220    23.8200 O.co2        1 ATP402  -1.0000
    12 O3A          7.5510   -39.5130    22.3910 O.3          1 ATP402   0.0000
    13 O5'          9.8730   -39.9370    21.5460 O.3          1 ATP402   0.0000
    14 C5'          9.7640   -41.3600    21.7140 C.3          1 ATP402   0.0000
    15 C4'          9.1670   -41.9390    20.4200 C.3          1 ATP402   0.0000
    16 O4'         10.0560   -41.6430    19.3450 O.3          1 ATP402   0.0000
    17 C3'          8.9950   -43.4590    20.3510 C.3          1 ATP402   0.0000
    18 O3'          7.7300   -43.8400    19.8360 O.3          1 ATP402   0.0000
    19 C2'          9.9720   -43.9480    19.3070 C.3          1 ATP402   0.0000
    20 O2'          9.5120   -45.1550    18.6650 O.3          1 ATP402   0.0000
    21 C1'         10.0550   -42.7150    18.4280 C.3          1 ATP402   0.0000
    22 N9          11.3060   -42.7420    17.6770 N.pl3        1 ATP402   0.0000
    23 C8          12.5160   -42.4160    18.1610 C.2          1 ATP402   0.0000
    24 N7          13.4650   -42.6100    17.2070 N.2          1 ATP402   0.0000
    25 C5          12.8630   -43.0350    16.0870 C.ar         1 ATP402   0.0000
    26 C6          13.3080   -43.3840    14.7520 C.ar         1 ATP402   0.0000
    27 N6          14.6180   -43.3070    14.4230 N.pl3        1 ATP402   0.0000
    28 N1          12.4080   -43.7570    13.8660 N.ar         1 ATP402   0.0000
    29 C2          11.0720   -43.8140    14.2150 C.ar         1 ATP402   0.0000
    30 N3          10.5510   -43.5230    15.4280 N.ar         1 ATP402   0.0000
    31 C4          11.4220   -43.1250    16.3920 C.ar         1 ATP402   0.0000
    32 H5'1         9.1652   -41.5668    22.4877 H            1 ATP402   0.0000
    33 H5'2        10.6684   -41.7539    21.8779 H            1 ATP402   0.0000
    34 H4'          8.2848   -41.5024    20.2436 H            1 ATP402   0.0000
    35 H3'          9.1689   -43.8849    21.2389 H            1 ATP402   0.0000
    36 H5           7.4578   -44.7157    20.2347 H            1 ATP402   0.0000
    37 H2'         10.8610   -44.1146    19.7335 H            1 ATP402   0.0000
    38 H7           8.9531   -45.6812    19.3059 H            1 ATP402   0.0000
    39 H1'          9.2686   -42.6597    17.8127 H            1 ATP402   0.0000
    40 H9          12.6926   -42.0803    19.0863 H            1 ATP402   0.0000
    41 H10         14.9168   -43.5495    13.5000 H            1 ATP402   0.0000
    42 H11         15.2875   -43.0076    15.1028 H            1 ATP402   0.0000
    43 H12         10.4298   -44.0974    13.5027 H            1 ATP402   0.0000
@<TRIPOS>BOND
     1    1    2      ar
     2    1    3      ar
     3    1    4      ar
     4    1    8       1
     5    5    6      ar
     6    5    7      ar
     7    5    8       1
     8    5   12       1
     9    9   10      ar
    10    9   11      ar
    11    9   12       1
    12    9   13       1
    13   13   14       1
    14   14   15       1
    15   15   16       1
    16   15   17       1
    17   16   21       1
    18   17   18       1
    19   17   19       1
    20   19   20       1
    21   19   21       1
    22   21   22       1
    23   22   23       1
    24   22   31       1
    25   23   24       2
    26   24   25       1
    27   25   26      ar
    28   25   31      ar
    29   26   27       1
    30   26   28      ar
    31   28   29      ar
    32   29   30      ar
    33   30   31      ar
    34   29   43       1
    35   27   42       1
    36   27   41       1
    37   23   40       1
    38   14   32       1
    39   14   33       1
    40   15   34       1
    41   17   35       1
    42   18   36       1
    43   19   37       1
    44   20   38       1
    45   21   39       1
@<TRIPOS>SUBSTRUCTURE
     1 ATP402      1 GROUP             4 A     ATP     0 **** ATP A 402
