@<TRIPOS>MOLECULE
1kxp_ATP_1_ligand
   43    45     1     0     0
SMALL
NO_CHARGES


@<TRIPOS>ATOM
     1 PG          -4.8510    -6.8310    76.3290 P.3          1 ATP390   0.0000
     2 O1G         -5.3740    -6.7390    74.9380 O.co2        1 ATP390   0.0000
     3 O2G         -3.3720    -6.8040    76.4510 O.co2        1 ATP390  -1.0000
     4 O3G         -5.4410    -5.8080    77.2080 O.co2        1 ATP390  -1.0000
     5 PB          -4.6620    -9.5190    77.6320 P.3          1 ATP390   0.0000
     6 O1B         -3.3970    -9.1580    78.2590 O.co2        1 ATP390   0.0000
     7 O2B         -5.6580   -10.0600    78.5620 O.co2        1 ATP390  -1.0000
     8 O3B         -5.3330    -8.2360    76.9440 O.3          1 ATP390   0.0000
     9 PA          -3.4190   -11.8020    76.4660 P.3          1 ATP390   0.0000
    10 O1A         -2.1000   -11.3890    75.9690 O.co2        1 ATP390   0.0000
    11 O2A         -3.5020   -12.4010    77.7820 O.co2        1 ATP390  -1.0000
    12 O3A         -4.3960   -10.5910    76.4640 O.3          1 ATP390   0.0000
    13 O5'         -3.9920   -12.8480    75.3950 O.3          1 ATP390   0.0000
    14 C5'         -5.2560   -13.5450    75.4900 C.3          1 ATP390   0.0000
    15 C4'         -5.9230   -13.4950    74.1410 C.3          1 ATP390   0.0000
    16 O4'         -5.0020   -14.2560    73.3590 O.3          1 ATP390   0.0000
    17 C3'         -7.2940   -14.1860    73.9210 C.3          1 ATP390   0.0000
    18 O3'         -8.0910   -13.6130    72.8770 O.3          1 ATP390   0.0000
    19 C2'         -6.8580   -15.5940    73.5580 C.3          1 ATP390   0.0000
    20 O2'         -7.7720   -16.4070    72.8400 O.3          1 ATP390   0.0000
    21 C1'         -5.6360   -15.3540    72.6940 C.3          1 ATP390   0.0000
    22 N9          -4.7390   -16.5790    72.6740 N.pl3        1 ATP390   0.0000
    23 C8          -4.1830   -17.2770    73.7550 C.2          1 ATP390   0.0000
    24 N7          -3.4440   -18.3060    73.3710 N.2          1 ATP390   0.0000
    25 C5          -3.5090   -18.2900    71.9600 C.ar         1 ATP390   0.0000
    26 C6          -2.9110   -19.1480    70.9430 C.ar         1 ATP390   0.0000
    27 N6          -2.1270   -20.1970    71.1790 N.pl3        1 ATP390   0.0000
    28 N1          -3.2010   -18.8180    69.6210 N.ar         1 ATP390   0.0000
    29 C2          -4.0250   -17.7180    69.3820 C.ar         1 ATP390   0.0000
    30 N3          -4.6160   -16.8760    70.2640 N.ar         1 ATP390   0.0000
    31 C4          -4.3030   -17.2360    71.5350 C.ar         1 ATP390   0.0000
    32 H5'1        -5.8372   -13.1007    76.1717 H            1 ATP390   0.0000
    33 H5'2        -5.0989   -14.4964    75.7550 H            1 ATP390   0.0000
    34 H4'         -5.9570   -12.5520    73.8098 H            1 ATP390   0.0000
    35 H3'         -7.8109   -14.1988    74.7769 H            1 ATP390   0.0000
    36 H5          -8.6719   -12.8936    73.2578 H            1 ATP390   0.0000
    37 H2'         -6.5795   -16.0736    74.3902 H            1 ATP390   0.0000
    38 H7          -7.6205   -17.3670    73.0756 H            1 ATP390   0.0000
    39 H1'         -5.9045   -15.0974    71.7655 H            1 ATP390   0.0000
    40 H9          -4.3287   -17.0251    74.7117 H            1 ATP390   0.0000
    41 H10         -1.7608   -20.7293    70.4157 H            1 ATP390   0.0000
    42 H11         -1.9041   -20.4530    72.1196 H            1 ATP390   0.0000
    43 H12         -4.2061   -17.5221    68.4182 H            1 ATP390   0.0000
@<TRIPOS>BOND
     1    1    2      ar
     2    1    3      ar
     3    1    4      ar
     4    1    8       1
     5    5    6      ar
     6    5    7      ar
     7    5    8       1
     8    5   12       1
     9    9   10      ar
    10    9   11      ar
    11    9   12       1
    12    9   13       1
    13   13   14       1
    14   14   15       1
    15   15   16       1
    16   15   17       1
    17   16   21       1
    18   17   18       1
    19   17   19       1
    20   19   20       1
    21   19   21       1
    22   21   22       1
    23   22   23       1
    24   22   31       1
    25   23   24       2
    26   24   25       1
    27   25   26      ar
    28   25   31      ar
    29   26   27       1
    30   26   28      ar
    31   28   29      ar
    32   29   30      ar
    33   30   31      ar
    34   29   43       1
    35   27   42       1
    36   27   41       1
    37   23   40       1
    38   14   32       1
    39   14   33       1
    40   15   34       1
    41   17   35       1
    42   18   36       1
    43   19   37       1
    44   20   38       1
    45   21   39       1
@<TRIPOS>SUBSTRUCTURE
     1 ATP390      1 GROUP             4 A     ATP     0 **** ATP A 390
