@<TRIPOS>MOLECULE
3viu_ADP_1_ligand
   39    41     1     0     0
SMALL
NO_CHARGES


@<TRIPOS>ATOM
     1 PB          41.1470   -17.8310    12.4180 P.3          1 ADP800   0.0000
     2 O1B         40.3760   -18.9830    11.8730 O.co2        1 ADP800   0.0000
     3 O2B         40.5090   -17.3840    13.8270 O.co2        1 ADP800  -1.0000
     4 O3B         42.7520   -18.3070    12.6210 O.co2        1 ADP800  -1.0000
     5 PA          39.7740   -16.5830    10.4170 P.3          1 ADP800   0.0000
     6 O1A         40.0610   -17.3820     9.1940 O.co2        1 ADP800   0.0000
     7 O2A         38.5120   -17.2450    11.1890 O.co2        1 ADP800  -1.0000
     8 O3A         41.1030   -16.5610    11.3820 O.3          1 ADP800   0.0000
     9 O5'         39.3730   -15.0400    10.0590 O.3          1 ADP800   0.0000
    10 C5'         39.5420   -14.8130     8.6460 C.3          1 ADP800   0.0000
    11 C4'         40.2560   -13.4670     8.3260 C.3          1 ADP800   0.0000
    12 O4'         39.2880   -12.4410     7.9340 O.3          1 ADP800   0.0000
    13 C3'         41.0450   -12.8610     9.5150 C.3          1 ADP800   0.0000
    14 O3'         42.1940   -12.1600     9.0210 O.3          1 ADP800   0.0000
    15 C2'         40.0250   -11.9340    10.1760 C.3          1 ADP800   0.0000
    16 O2'         40.6480   -10.8920    10.9320 O.3          1 ADP800   0.0000
    17 C1'         39.2070   -11.4190     8.9890 C.3          1 ADP800   0.0000
    18 N9          37.8090   -11.1650     9.3640 N.pl3        1 ADP800   0.0000
    19 C8          36.8350   -12.1050     9.5540 C.2          1 ADP800   0.0000
    20 N7          35.7090   -11.5370     9.8760 N.2          1 ADP800   0.0000
    21 C5          35.8800   -10.1990     9.9160 C.ar         1 ADP800   0.0000
    22 C6          35.0430    -9.0880    10.1980 C.ar         1 ADP800   0.0000
    23 N6          33.7120    -9.2760    10.5240 N.pl3        1 ADP800   0.0000
    24 N1          35.5720    -7.8460    10.1410 N.ar         1 ADP800   0.0000
    25 C2          36.8610    -7.6420     9.8270 C.ar         1 ADP800   0.0000
    26 N3          37.6800    -8.6600     9.5550 N.ar         1 ADP800   0.0000
    27 C4          37.2380    -9.9360     9.5870 C.ar         1 ADP800   0.0000
    28 H5'1        38.6399   -14.8054     8.2145 H            1 ADP800   0.0000
    29 H5'2        40.0868   -15.5606     8.2663 H            1 ADP800   0.0000
    30 H4'         40.8889   -13.6149     7.5660 H            1 ADP800   0.0000
    31 H3'         41.3236   -13.5810    10.1505 H            1 ADP800   0.0000
    32 H5          42.7019   -11.7697     9.7889 H            1 ADP800   0.0000
    33 H2'         39.4327   -12.4699    10.7777 H            1 ADP800   0.0000
    34 H7          41.2127   -11.2947    11.6524 H            1 ADP800   0.0000
    35 H1'         39.6154   -10.5699     8.6540 H            1 ADP800   0.0000
    36 H9          36.9688   -13.0914     9.4589 H            1 ADP800   0.0000
    37 H10         33.1293    -8.4876    10.7212 H            1 ADP800   0.0000
    38 H11         33.3324   -10.2003    10.5624 H            1 ADP800   0.0000
    39 H12         37.2152    -6.7073     9.7962 H            1 ADP800   0.0000
@<TRIPOS>BOND
     1    1    2      ar
     2    1    3      ar
     3    1    4      ar
     4    1    8       1
     5    5    6      ar
     6    5    7      ar
     7    5    8       1
     8    5    9       1
     9    9   10       1
    10   10   11       1
    11   11   12       1
    12   11   13       1
    13   12   17       1
    14   13   14       1
    15   13   15       1
    16   15   16       1
    17   15   17       1
    18   17   18       1
    19   18   19       1
    20   18   27       1
    21   19   20       2
    22   20   21       1
    23   21   22      ar
    24   21   27      ar
    25   22   23       1
    26   22   24      ar
    27   24   25      ar
    28   25   26      ar
    29   26   27      ar
    30   25   39       1
    31   23   38       1
    32   23   37       1
    33   10   28       1
    34   10   29       1
    35   11   30       1
    36   13   31       1
    37   14   32       1
    38   15   33       1
    39   16   34       1
    40   17   35       1
    41   19   36       1
@<TRIPOS>SUBSTRUCTURE
     1 ADP800      1 GROUP             4 A     ADP     0 **** ADP A 800
