@<TRIPOS>MOLECULE
2wca_NP6_1_ligand
   50    51     1     0     0
SMALL
NO_CHARGES


@<TRIPOS>ATOM
     1 C2         -11.6300   -11.9620     3.9150 C.3          1 NP6900   0.0000
     2 C1         -10.8660   -11.3430     5.0790 C.3          1 NP6900   0.0000
     3 C3          -9.7790   -12.2600     5.6170 C.3          1 NP6900   0.0000
     4 C4          -9.1080   -11.5830     6.8330 C.2          1 NP6900   0.0000
     5 O1          -9.3390   -10.4000     7.1020 O.2          1 NP6900   0.0000
     6 N1          -8.2990   -12.3810     7.5430 N.am         1 NP6900   0.0000
     7 C5          -7.5410   -11.9910     8.7700 C.3          1 NP6900   0.0000
     8 C6          -8.4910   -11.6570     9.9340 C.3          1 NP6900   0.0000
     9 O2          -8.7880   -12.8410    10.6560 O.3          1 NP6900   0.0000
    10 C7          -7.8700   -10.6270    10.8640 C.3          1 NP6900   0.0000
    11 O3          -8.7600   -10.3290    11.9490 O.3          1 NP6900   0.0000
    12 C8          -7.6560    -9.3410    10.0690 C.3          1 NP6900   0.0000
    13 C9          -7.1080    -8.1250    10.8560 C.3          1 NP6900   0.0000
    14 O4          -5.9500    -8.4830    11.6000 O.3          1 NP6900   0.0000
    15 O5          -6.7550    -9.5630     8.9930 O.3          1 NP6900   0.0000
    16 C10         -6.5490   -10.8350     8.5180 C.2          1 NP6900   0.0000
    17 N2          -5.4220   -11.0460     7.8390 N.2          1 NP6900   0.0000
    18 O6          -4.5350   -10.0080     7.6740 O.3          1 NP6900   0.0000
    19 C11         -3.2740   -10.4050     7.2640 C.2          1 NP6900   0.0000
    20 O7          -2.3680    -9.5680     7.1710 O.2          1 NP6900   0.0000
    21 N3          -3.0940   -11.7220     6.9990 N.am         1 NP6900   0.0000
    22 C12         -2.0090   -12.3690     6.5050 C.ar         1 NP6900   0.0000
    23 C13         -2.1290   -13.7370     6.2340 C.ar         1 NP6900   0.0000
    24 C14         -1.0640   -14.4730     5.7020 C.ar         1 NP6900   0.0000
    25 C15          0.1500   -13.8360     5.4220 C.ar         1 NP6900   0.0000
    26 C16          0.2770   -12.4670     5.6660 C.ar         1 NP6900   0.0000
    27 C17         -0.7940   -11.7390     6.2020 C.ar         1 NP6900   0.0000
    28 H1         -12.3306   -11.3225     3.5984 H            1 NP6900   0.0000
    29 H2         -10.9960   -12.1589     3.1672 H            1 NP6900   0.0000
    30 H3         -12.0649   -12.8109     4.2155 H            1 NP6900   0.0000
    31 H4         -11.5115   -11.1441     5.8164 H            1 NP6900   0.0000
    32 H5         -10.4426   -10.4921     4.7681 H            1 NP6900   0.0000
    33 H6          -9.0960   -12.4242     4.9053 H            1 NP6900   0.0000
    34 H7         -10.1832   -13.1303     5.8983 H            1 NP6900   0.0000
    35 H8          -8.1930   -13.3224     7.2228 H            1 NP6900   0.0000
    36 H9          -7.0022   -12.7861     9.0485 H            1 NP6900   0.0000
    37 H10         -9.3407   -11.2845     9.5608 H            1 NP6900   0.0000
    38 H11         -9.7028   -12.7685    11.0534 H            1 NP6900   0.0000
    39 H12         -6.9969   -10.9633    11.2169 H            1 NP6900   0.0000
    40 H13         -8.2276   -10.0790    12.7578 H            1 NP6900   0.0000
    41 H14         -8.5372    -9.0765     9.6771 H            1 NP6900   0.0000
    42 H15         -7.8130    -7.7972    11.4849 H            1 NP6900   0.0000
    43 H16         -6.8715    -7.3975    10.2119 H            1 NP6900   0.0000
    44 H17         -6.1172    -8.3253    12.5732 H            1 NP6900   0.0000
    45 H18         -3.8812   -12.3057     7.1980 H            1 NP6900   0.0000
    46 H19         -2.9952   -14.1989     6.4248 H            1 NP6900   0.0000
    47 H20         -1.1703   -15.4510     5.5226 H            1 NP6900   0.0000
    48 H21          0.9192   -14.3561     5.0508 H            1 NP6900   0.0000
    49 H22          1.1378   -12.0030     5.4569 H            1 NP6900   0.0000
    50 H23         -0.6902   -10.7587     6.3702 H            1 NP6900   0.0000
@<TRIPOS>BOND
     1    1    2       1
     2    2    3       1
     3    3    4       1
     4    4    5       2
     5    4    6      am
     6    6    7       1
     7    7    8       1
     8    7   16       1
     9    8    9       1
    10    8   10       1
    11   10   11       1
    12   10   12       1
    13   12   13       1
    14   12   15       1
    15   13   14       1
    16   15   16       1
    17   16   17       2
    18   17   18       1
    19   18   19       1
    20   19   20       2
    21   19   21      am
    22   21   22       1
    23   22   23      ar
    24   22   27      ar
    25   23   24      ar
    26   24   25      ar
    27   25   26      ar
    28   26   27      ar
    29    1   28       1
    30    1   29       1
    31    1   30       1
    32    2   31       1
    33    2   32       1
    34    3   33       1
    35    3   34       1
    36    6   35       1
    37    7   36       1
    38    8   37       1
    39    9   38       1
    40   10   39       1
    41   11   40       1
    42   12   41       1
    43   13   42       1
    44   13   43       1
    45   14   44       1
    46   21   45       1
    47   23   46       1
    48   24   47       1
    49   25   48       1
    50   26   49       1
    51   27   50       1
@<TRIPOS>SUBSTRUCTURE
     1 NP6900      1 GROUP             4 A     NP6     0 **** NP6 A 900
