@<TRIPOS>MOLECULE
2nya_MGD_2_ligand
   69    74     1     0     0
SMALL
NO_CHARGES


@<TRIPOS>ATOM
     1 PB           8.0860    -1.6240    40.9660 P.3          1 MGD4001   0.0000
     2 O1B          7.1440    -1.6110    42.1130 O.co2        1 MGD4001   0.0000
     3 O2B          7.6590    -0.9940    39.6560 O.co2        1 MGD4001  -1.0000
     4 O3B          9.5090    -0.9860    41.3340 O.3          1 MGD4001   0.0000
     5 O3A          9.9570    -0.0210    43.5610 O.3          1 MGD4001   0.0000
     6 PA          10.3750    -1.2810    42.6430 P.3          1 MGD4001   0.0000
     7 O1A         11.7920    -1.1290    42.1870 O.co2        1 MGD4001   0.0000
     8 O2A         10.0040    -2.5260    43.3920 O.co2        1 MGD4001  -1.0000
     9 O5'          8.5310    -3.1590    40.7240 O.3          1 MGD4001   0.0000
    10 C5'          8.5660    -3.8460    39.4790 C.3          1 MGD4001   0.0000
    11 C4'          9.7360    -4.8080    39.6670 C.3          1 MGD4001   0.0000
    12 O4'          9.2720    -6.0200    40.2630 O.3          1 MGD4001   0.0000
    13 C3'         10.4840    -5.2190    38.4030 C.3          1 MGD4001   0.0000
    14 O3'         11.8790    -4.8990    38.5460 O.3          1 MGD4001   0.0000
    15 C2'         10.4320    -6.7310    38.3940 C.3          1 MGD4001   0.0000
    16 O2'         11.7510    -7.2230    38.1430 O.3          1 MGD4001   0.0000
    17 C1'         10.1040    -7.0900    39.8240 C.3          1 MGD4001   0.0000
    18 N9           9.5050    -8.4460    39.9850 N.pl3        1 MGD4001   0.0000
    19 C8           8.3390    -8.9220    39.4970 C.2          1 MGD4001   0.0000
    20 N7           8.1450   -10.2230    39.8640 N.2          1 MGD4001   0.0000
    21 C5           9.1980   -10.5830    40.6110 C.2          1 MGD4001   0.0000
    22 C6           9.6490   -11.7930    41.3350 C.2          1 MGD4001   0.0000
    23 O6           9.0010   -12.8560    41.3430 O.2          1 MGD4001   0.0000
    24 N1          10.8070   -11.7450    41.9800 N.pl3        1 MGD4001   0.0000
    25 C2          11.5790   -10.6430    41.9960 C.2          1 MGD4001   0.0000
    26 N2          12.7450   -10.6850    42.7040 N.pl3        1 MGD4001   0.0000
    27 N3          11.2340    -9.5080    41.3570 N.2          1 MGD4001   0.0000
    28 C4          10.0830    -9.4150    40.6740 C.2          1 MGD4001   0.0000
    29 C10          8.7350     0.0650    44.3270 C.3          1 MGD4001   0.0000
    30 C11          8.9020     1.3350    45.1750 C.3          1 MGD4001   0.0000
    31 O11          9.1230     2.4780    44.3360 O.3          1 MGD4001   0.0000
    32 C12          7.8770     1.6030    46.2800 C.2          1 MGD4001   0.0000
    33 S12          7.3840     0.2930    47.2450 S.2          1 MGD4001   0.0000
    34 C13          7.4840     2.8700    46.5840 C.2          1 MGD4001   0.0000
    35 S13          6.5630     3.2400    47.9610 S.2          1 MGD4001   0.0000
    36 C14          7.9660     4.0480    45.7890 C.3          1 MGD4001   0.0000
    37 N15          6.9990     4.5050    44.8130 N.pl3        1 MGD4001   0.0000
    38 C16          7.4090     5.0780    43.6480 C.2          1 MGD4001   0.0000
    39 C17          6.5060     5.5790    42.5860 C.2          1 MGD4001   0.0000
    40 O17          5.2850     5.5380    42.6640 O.2          1 MGD4001   0.0000
    41 N18          7.0270     6.1240    41.5020 N.pl3        1 MGD4001   0.0000
    42 C19          8.3420     6.2430    41.3020 C.2          1 MGD4001   0.0000
    43 N19          8.7230     6.8010    40.1400 N.pl3        1 MGD4001   0.0000
    44 N20          9.2440     5.8040    42.2080 N.2          1 MGD4001   0.0000
    45 C21          8.8510     5.2310    43.3660 C.2          1 MGD4001   0.0000
    46 N22          9.7190     4.7690    44.2940 N.pl3        1 MGD4001   0.0000
    47 C23          9.2950     3.6690    45.1330 C.3          1 MGD4001   0.0000
    48 H5'1         8.7350    -3.2146    38.7222 H            1 MGD4001   0.0000
    49 H5'2         7.7130    -4.3416    39.3154 H            1 MGD4001   0.0000
    50 H4'         10.3908    -4.3838    40.2926 H            1 MGD4001   0.0000
    51 H3'         10.0847    -4.8196    37.5777 H            1 MGD4001   0.0000
    52 H5          12.1363    -4.9535    39.5108 H            1 MGD4001   0.0000
    53 H2'          9.7598    -7.0877    37.7452 H            1 MGD4001   0.0000
    54 H7          12.0699    -6.8852    37.2574 H            1 MGD4001   0.0000
    55 H1'         10.9519    -7.0607    40.3533 H            1 MGD4001   0.0000
    56 H9           7.7009    -8.3909    38.9396 H            1 MGD4001   0.0000
    57 H10         11.1178   -12.5578    42.4726 H            1 MGD4001   0.0000
    58 H11         13.3403    -9.8821    42.7351 H            1 MGD4001   0.0000
    59 H12         13.0041   -11.5187    43.1917 H            1 MGD4001   0.0000
    60 H13          8.6270    -0.7390    44.9118 H            1 MGD4001   0.0000
    61 H14          7.9432     0.1457    43.7216 H            1 MGD4001   0.0000
    62 H15          9.7675     1.2046    45.6586 H            1 MGD4001   0.0000
    63 H16          8.1398     4.7992    46.4258 H            1 MGD4001   0.0000
    64 H17          6.0217     4.3989    44.9962 H            1 MGD4001   0.0000
    65 H18          6.4061     6.4645    40.7959 H            1 MGD4001   0.0000
    66 H19          9.6951     6.9158    39.9355 H            1 MGD4001   0.0000
    67 H20          8.0343     7.1013    39.4800 H            1 MGD4001   0.0000
    68 H21         10.6268     5.1754    44.3974 H            1 MGD4001   0.0000
    69 H22          9.9823     3.5026    45.8401 H            1 MGD4001   0.0000
@<TRIPOS>BOND
     1    1    2      ar
     2    1    3      ar
     3    1    4       1
     4    1    9       1
     5    4    6       1
     6    5    6       1
     7    5   29       1
     8    6    7      ar
     9    6    8      ar
    10    9   10       1
    11   10   11       1
    12   11   12       1
    13   11   13       1
    14   12   17       1
    15   13   14       1
    16   13   15       1
    17   15   16       1
    18   15   17       1
    19   17   18       1
    20   18   19       1
    21   18   28       1
    22   19   20       2
    23   20   21       1
    24   21   22       1
    25   21   28       2
    26   22   23       2
    27   22   24       1
    28   24   25       1
    29   25   26       1
    30   25   27       2
    31   27   28       1
    32   29   30       1
    33   30   31       1
    34   30   32       1
    35   31   47       1
    36   32   33       2
    37   32   34       1
    38   34   35       2
    39   34   36       1
    40   36   37       1
    41   36   47       1
    42   37   38       1
    43   38   39       1
    44   38   45       2
    45   39   40       2
    46   39   41       1
    47   41   42       1
    48   42   43       1
    49   42   44       2
    50   44   45       1
    51   45   46       1
    52   46   47       1
    53   47   69       1
    54   46   68       1
    55   10   48       1
    56   10   49       1
    57   11   50       1
    58   13   51       1
    59   14   52       1
    60   15   53       1
    61   16   54       1
    62   17   55       1
    63   19   56       1
    64   24   57       1
    65   26   58       1
    66   26   59       1
    67   29   60       1
    68   29   61       1
    69   30   62       1
    70   36   63       1
    71   37   64       1
    72   41   65       1
    73   43   66       1
    74   43   67       1
@<TRIPOS>SUBSTRUCTURE
     1 MGD4001     1 GROUP             4 A     MGD     0 **** MGD A4001
