@<TRIPOS>MOLECULE
4aj4_VAB_2_ligand
   34    35     1     0     0
SMALL
NO_CHARGES


@<TRIPOS>ATOM
     1 C8         -10.6490    -2.2140    12.0600 C.ar         1 VAB1333   0.0000
     2 C9          -9.3260    -2.1630    11.6660 C.ar         1 VAB1333   0.0000
     3 C11         -9.9910    -1.4910     9.4390 C.ar         1 VAB1333   0.0000
     4 C7         -11.6670    -1.9120    11.1500 C.ar         1 VAB1333   0.0000
     5 C10         -8.9840    -1.8040    10.3620 C.ar         1 VAB1333   0.0000
     6 C12        -11.3140    -1.5510     9.8510 C.ar         1 VAB1333   0.0000
     7 C5         -13.6870    -1.5980    10.3460 C.2          1 VAB1333   0.0000
     8 C3         -15.7600    -1.3540     8.4540 C.3          1 VAB1333   0.0000
     9 C2         -17.2220    -1.1270     8.1020 C.2          1 VAB1333   0.0000
    10 C15         -7.0350    -0.7770     9.2270 C.2          1 VAB1333   0.0000
    11 C19         -3.9310    -0.9570     7.1040 C.2          1 VAB1333   0.0000
    12 C1         -18.0250    -0.3640     8.7290 C.2          1 VAB1333   0.0000
    13 C17         -5.5900    -0.9760     8.9820 C.3          1 VAB1333   0.0000
    14 C18         -5.1220    -0.3040     7.7010 C.3          1 VAB1333   0.0000
    15 N6         -13.0370    -1.9250    11.4060 N.2          1 VAB1333   0.0000
    16 N14         -7.6190    -1.7500     9.9710 N.am         1 VAB1333   0.0000
    17 O16         -7.6600     0.1860     8.7600 O.2          1 VAB1333   0.0000
    18 O20         -2.8510    -0.2220     7.0330 O.co2        1 VAB1333   0.0000
    19 O21         -3.9970    -2.1210     6.7230 O.co2        1 VAB1333  -1.0000
    20 S13        -12.7480    -1.2540     8.9180 S.3          1 VAB1333   0.0000
    21 S4         -15.4190    -1.5110    10.2580 S.3          1 VAB1333   0.0000
    22 H1         -10.8796    -2.4678    12.9994 H            1 VAB1333   0.0000
    23 H2          -8.6055    -2.3859    12.3227 H            1 VAB1333   0.0000
    24 H3          -9.7602    -1.2295     8.5018 H            1 VAB1333   0.0000
    25 H4         -15.2313    -0.5812     8.1030 H            1 VAB1333   0.0000
    26 H5         -15.4584    -2.1953     8.0054 H            1 VAB1333   0.0000
    27 H6         -17.5834    -1.6193     7.3102 H            1 VAB1333   0.0000
    28 H7         -18.9732    -0.2768     8.4235 H            1 VAB1333   0.0000
    29 H8         -17.7077     0.1483     9.5271 H            1 VAB1333   0.0000
    30 H9          -5.4076    -1.9570     8.9153 H            1 VAB1333   0.0000
    31 H10         -5.0781    -0.5933     9.7511 H            1 VAB1333   0.0000
    32 H11         -5.8679    -0.3326     7.0356 H            1 VAB1333   0.0000
    33 H12         -4.8942     0.6479     7.9057 H            1 VAB1333   0.0000
    34 H13         -7.0323    -2.5013    10.2732 H            1 VAB1333   0.0000
@<TRIPOS>BOND
     1    1    2      ar
     2    1    4      ar
     3    2    5      ar
     4    3    5      ar
     5    3    6      ar
     6    4    6      ar
     7    4   15       1
     8    5   16       1
     9    6   20       1
    10    7   15       2
    11    7   20       1
    12    7   21       1
    13    8    9       1
    14    8   21       1
    15    9   12       2
    16   10   13       1
    17   10   16      am
    18   10   17       2
    19   11   14       1
    20   11   18      ar
    21   11   19      ar
    22   13   14       1
    23    1   22       1
    24    2   23       1
    25    3   24       1
    26    8   25       1
    27    8   26       1
    28    9   27       1
    29   12   28       1
    30   12   29       1
    31   13   30       1
    32   13   31       1
    33   14   32       1
    34   14   33       1
    35   16   34       1
@<TRIPOS>SUBSTRUCTURE
     1 VAB1333     1 GROUP             4 B     VAB     0 **** VAB B1333
