@<TRIPOS>MOLECULE
2ed4_NAD_4_ligand
   70    74     1     0     0
SMALL
NO_CHARGES


@<TRIPOS>ATOM
     1 PA          25.5610     4.1780    44.5230 P.3          1 NAD501   0.0000
     2 O1A         26.6420     4.1240    43.5120 O.co2        1 NAD501   0.0000
     3 O2A         24.9580     2.9030    44.9720 O.co2        1 NAD501  -1.0000
     4 O5B         26.1000     4.9900    45.8040 O.3          1 NAD501   0.0000
     5 C5B         25.3770     4.9890    47.0380 C.3          1 NAD501   0.0000
     6 C4B         26.0840     5.8600    48.0790 C.3          1 NAD501   0.0000
     7 O4B         27.3230     5.2460    48.4770 O.3          1 NAD501   0.0000
     8 C3B         26.4800     7.2090    47.4780 C.3          1 NAD501   0.0000
     9 O3B         25.3940     8.1360    47.5780 O.3          1 NAD501   0.0000
    10 C2B         27.6050     7.6100    48.4270 C.3          1 NAD501   0.0000
    11 O2B         27.0580     8.0360    49.6790 O.3          1 NAD501   0.0000
    12 C1B         28.3250     6.2710    48.6060 C.3          1 NAD501   0.0000
    13 N9A         29.3310     6.1220    47.5320 N.pl3        1 NAD501   0.0000
    14 C8A         29.1330     5.5470    46.3430 C.2          1 NAD501   0.0000
    15 N7A         30.2500     5.6070    45.6260 N.2          1 NAD501   0.0000
    16 C5A         31.1730     6.2180    46.3620 C.ar         1 NAD501   0.0000
    17 C6A         32.5040     6.5670    46.1660 C.ar         1 NAD501   0.0000
    18 N6A         33.1090     6.2980    45.0100 N.pl3        1 NAD501   0.0000
    19 N1A         33.1660     7.1880    47.1520 N.ar         1 NAD501   0.0000
    20 C2A         32.5790     7.4880    48.3000 C.ar         1 NAD501   0.0000
    21 N3A         31.3130     7.1710    48.5200 N.ar         1 NAD501   0.0000
    22 C4A         30.5900     6.5410    47.5820 C.ar         1 NAD501   0.0000
    23 O3          24.3530     5.0720    43.9420 O.3          1 NAD501   0.0000
    24 PN          24.2710     6.6800    44.0100 P.3          1 NAD501   0.0000
    25 O1N         24.2150     7.1230    45.4220 O.co2        1 NAD501   0.0000
    26 O2N         23.1950     7.1170    43.0920 O.co2        1 NAD501  -1.0000
    27 O5D         25.6750     7.1770    43.3990 O.3          1 NAD501   0.0000
    28 C5D         25.9430     6.9910    42.0070 C.3          1 NAD501   0.0000
    29 C4D         27.3940     7.3480    41.6790 C.3          1 NAD501   0.0000
    30 O4D         27.6110     8.7600    41.8410 O.3          1 NAD501   0.0000
    31 C3D         28.3650     6.6780    42.6490 C.3          1 NAD501   0.0000
    32 O3D         28.6840     5.3460    42.2370 O.3          1 NAD501   0.0000
    33 C2D         29.5790     7.5880    42.4850 C.3          1 NAD501   0.0000
    34 O2D         30.2420     7.3230    41.2460 O.3          1 NAD501   0.0000
    35 C1D         28.9100     8.9620    42.4250 C.3          1 NAD501   0.0000
    36 N1N         28.7590     9.5280    43.7840 N.ar         1 NAD501   1.0000
    37 C2N         29.8950     9.8190    44.5460 C.ar         1 NAD501   0.0000
    38 C3N         29.7660    10.2420    45.8620 C.ar         1 NAD501   0.0000
    39 C7N         31.0290    10.4610    46.6920 C.2          1 NAD501   0.0000
    40 O7N         30.9537    10.7617    47.8816 O.2          1 NAD501   0.0000
    41 N7N         32.1762    10.3139    46.0377 N.am         1 NAD501   0.0000
    42 C4N         28.3830    10.5060    46.4630 C.ar         1 NAD501   0.0000
    43 C5N         27.3310    10.0660    45.6670 C.ar         1 NAD501   0.0000
    44 C6N         27.4890     9.7760    44.3150 C.ar         1 NAD501   0.0000
    45 H5B1        25.3149     4.0519    47.3815 H            1 NAD501   0.0000
    46 H5B2        24.4570     5.3477    46.8799 H            1 NAD501   0.0000
    47 H4B         25.4939     5.9957    48.8748 H            1 NAD501   0.0000
    48 H3B         26.8036     7.1158    46.5364 H            1 NAD501   0.0000
    49 H5          24.8232     8.0702    46.7596 H            1 NAD501   0.0000
    50 H2B         28.2024     8.3041    48.0253 H            1 NAD501   0.0000
    51 H7          27.6616     8.7182    50.0917 H            1 NAD501   0.0000
    52 H1B         28.7613     6.2244    49.5046 H            1 NAD501   0.0000
    53 H8A         28.2746     5.1341    46.0386 H            1 NAD501   0.0000
    54 H6A1        34.0669     6.5520    44.8760 H            1 NAD501   0.0000
    55 H6A2        32.6053     5.8421    44.2763 H            1 NAD501   0.0000
    56 H2A         33.0995     7.9608    49.0110 H            1 NAD501   0.0000
    57 H5D1        25.3329     7.5779    41.4747 H            1 NAD501   0.0000
    58 H5D2        25.7787     6.0343    41.7668 H            1 NAD501   0.0000
    59 H4D         27.6079     7.0760    40.7408 H            1 NAD501   0.0000
    60 H3D         28.0173     6.6975    43.5864 H            1 NAD501   0.0000
    61 H17         28.0307     4.7063    42.6420 H            1 NAD501   0.0000
    62 H2D         30.2040     7.5145    43.2621 H            1 NAD501   0.0000
    63 H19         29.7595     6.5951    40.7588 H            1 NAD501   0.0000
    64 H1D         29.4496     9.5810    41.8543 H            1 NAD501   0.0000
    65 H2N         30.8042     9.7220    44.1412 H            1 NAD501   0.0000
    66 H7N1        33.0446    10.4567    46.5126 H            1 NAD501   0.0000
    67 H7N2        32.1712    10.0605    45.0703 H            1 NAD501   0.0000
    68 H4N         28.2484    10.9538    47.3469 H            1 NAD501   0.0000
    69 H5N         26.4278     9.9538    46.0813 H            1 NAD501   0.0000
    70 H6N         26.6874     9.7447    43.7179 H            1 NAD501   0.0000
@<TRIPOS>BOND
     1    1    2      ar
     2    1    3      ar
     3    1    4       1
     4    1   23       1
     5    4    5       1
     6    5    6       1
     7    6    7       1
     8    6    8       1
     9    7   12       1
    10    8    9       1
    11    8   10       1
    12   10   11       1
    13   10   12       1
    14   12   13       1
    15   13   14       1
    16   13   22       1
    17   14   15       2
    18   15   16       1
    19   16   17      ar
    20   16   22      ar
    21   17   18       1
    22   17   19      ar
    23   19   20      ar
    24   20   21      ar
    25   21   22      ar
    26   23   24       1
    27   24   25      ar
    28   24   26      ar
    29   24   27       1
    30   27   28       1
    31   28   29       1
    32   29   30       1
    33   29   31       1
    34   30   35       1
    35   31   32       1
    36   31   33       1
    37   33   34       1
    38   33   35       1
    39   35   36       1
    40   36   37      ar
    41   36   44      ar
    42   37   38      ar
    43   38   39       1
    44   38   42      ar
    45   39   40       2
    46   39   41      am
    47   42   43      ar
    48   43   44      ar
    49   44   70       1
    50    5   45       1
    51    5   46       1
    52    6   47       1
    53    8   48       1
    54    9   49       1
    55   10   50       1
    56   11   51       1
    57   12   52       1
    58   14   53       1
    59   18   54       1
    60   18   55       1
    61   20   56       1
    62   43   69       1
    63   28   57       1
    64   28   58       1
    65   29   59       1
    66   31   60       1
    67   32   61       1
    68   33   62       1
    69   34   63       1
    70   35   64       1
    71   37   65       1
    72   41   66       1
    73   41   67       1
    74   42   68       1
@<TRIPOS>SUBSTRUCTURE
     1 NAD501      1 GROUP             4 B     NAD     0 **** NAD B 501
