@<TRIPOS>MOLECULE
1yra_GDP_1_ligand
   40    42     1     0     0
SMALL
NO_CHARGES


@<TRIPOS>ATOM
     1 PB           6.6480    -4.7190    24.5920 P.3          1 GDP401   0.0000
     2 O1B          5.8870    -3.4340    24.3400 O.co2        1 GDP401   0.0000
     3 O2B          6.1740    -5.8110    23.6770 O.co2        1 GDP401  -1.0000
     4 O3B          8.1030    -4.5150    24.2450 O.co2        1 GDP401  -1.0000
     5 O3A          6.6280    -5.1160    26.1590 O.3          1 GDP401   0.0000
     6 PA           5.4090    -4.7830    27.1570 P.3          1 GDP401   0.0000
     7 O1A          5.5310    -3.4020    27.7450 O.co2        1 GDP401   0.0000
     8 O2A          4.1700    -5.0350    26.3950 O.co2        1 GDP401  -1.0000
     9 O5'          5.6050    -5.7490    28.4410 O.3          1 GDP401   0.0000
    10 C5'          5.5710    -7.1790    28.3440 C.3          1 GDP401   0.0000
    11 C4'          5.1110    -7.7330    29.6910 C.3          1 GDP401   0.0000
    12 O4'          6.1760    -7.5830    30.6210 O.3          1 GDP401   0.0000
    13 C3'          3.9290    -6.9620    30.2760 C.3          1 GDP401   0.0000
    14 O3'          3.0700    -7.8740    30.9690 O.3          1 GDP401   0.0000
    15 C2'          4.5510    -6.0370    31.2890 C.3          1 GDP401   0.0000
    16 O2'          3.6480    -5.7650    32.3650 O.3          1 GDP401   0.0000
    17 C1'          5.7700    -6.8170    31.7570 C.3          1 GDP401   0.0000
    18 N9           6.9030    -5.9400    32.1230 N.pl3        1 GDP401   0.0000
    19 C8           7.4420    -4.9790    31.3640 C.2          1 GDP401   0.0000
    20 N7           8.4760    -4.3770    32.0120 N.2          1 GDP401   0.0000
    21 C5           8.5990    -4.9620    33.2090 C.2          1 GDP401   0.0000
    22 C6           9.4930    -4.8120    34.3650 C.2          1 GDP401   0.0000
    23 O6          10.4020    -3.9420    34.3430 O.2          1 GDP401   0.0000
    24 N1           9.2900    -5.6330    35.4130 N.pl3        1 GDP401   0.0000
    25 C2           8.3120    -6.5690    35.4370 C.2          1 GDP401   0.0000
    26 N2           8.1450    -7.3630    36.5390 N.pl3        1 GDP401   0.0000
    27 N3           7.4670    -6.7530    34.4010 N.2          1 GDP401   0.0000
    28 C4           7.5680    -5.9950    33.2790 C.2          1 GDP401   0.0000
    29 H5'1         6.4836    -7.5262    28.1281 H            1 GDP401   0.0000
    30 H5'2         4.9310    -7.4553    27.6270 H            1 GDP401   0.0000
    31 H4'          4.8740    -8.7001    29.5982 H            1 GDP401   0.0000
    32 H3'          3.4345    -6.4552    29.5698 H            1 GDP401   0.0000
    33 H5           3.0041    -7.6051    31.9299 H            1 GDP401   0.0000
    34 H2'          4.8337    -5.1838    30.8506 H            1 GDP401   0.0000
    35 H7           3.0998    -4.9583    32.1443 H            1 GDP401   0.0000
    36 H1'          5.5309    -7.4186    32.5192 H            1 GDP401   0.0000
    37 H9           7.1279    -4.7364    30.4461 H            1 GDP401   0.0000
    38 H10          9.8886    -5.5475    36.2094 H            1 GDP401   0.0000
    39 H11          7.4215    -8.0532    36.5530 H            1 GDP401   0.0000
    40 H12          8.7464    -7.2530    37.3303 H            1 GDP401   0.0000
@<TRIPOS>BOND
     1    1    2      ar
     2    1    3      ar
     3    1    4      ar
     4    1    5       1
     5    5    6       1
     6    6    7      ar
     7    6    8      ar
     8    6    9       1
     9    9   10       1
    10   10   11       1
    11   11   12       1
    12   11   13       1
    13   12   17       1
    14   13   14       1
    15   13   15       1
    16   15   16       1
    17   15   17       1
    18   17   18       1
    19   18   19       1
    20   18   28       1
    21   19   20       2
    22   20   21       1
    23   21   22       1
    24   21   28       2
    25   22   23       2
    26   22   24       1
    27   24   25       1
    28   25   26       1
    29   25   27       2
    30   27   28       1
    31   26   40       1
    32   26   39       1
    33   24   38       1
    34   10   29       1
    35   10   30       1
    36   11   31       1
    37   13   32       1
    38   14   33       1
    39   15   34       1
    40   16   35       1
    41   17   36       1
    42   19   37       1
@<TRIPOS>SUBSTRUCTURE
     1 GDP401      1 GROUP             4 A     GDP     0 **** GDP A 401
