@<TRIPOS>MOLECULE
3fnq_HPA_1_ligand
   14    15     1     0     0
SMALL
NO_CHARGES


@<TRIPOS>ATOM
     1 N1           8.1970    -3.9220    30.4190 N.pl3        1 HPA981   0.0000
     2 C2           6.9490    -4.3330    29.8210 C.2          1 HPA981   0.0000
     3 N3           6.1060    -3.4100    29.3380 N.2          1 HPA981   0.0000
     4 C4           6.4270    -2.1060    29.4100 C.2          1 HPA981   0.0000
     5 C5           7.6490    -1.7070    29.9940 C.2          1 HPA981   0.0000
     6 C6           8.5160    -2.6490    30.4800 C.2          1 HPA981   0.0000
     7 O6           9.7310    -2.2580    31.0400 O.2          1 HPA981   0.0000
     8 N7           7.7360    -0.2660    29.9400 N.pl3        1 HPA981   0.0000
     9 C8           6.5400     0.2380    29.2630 C.2          1 HPA981   0.0000
    10 N9           5.7020    -0.9060    28.9990 N.2          1 HPA981   0.0000
    11 H1           8.8218    -4.6097    30.7887 H            1 HPA981   0.0000
    12 H2           6.7143    -5.3036    29.7673 H            1 HPA981   0.0000
    13 H3           6.3424     1.1900    29.0291 H            1 HPA981   0.0000
    14 H4           8.4836     0.2906    30.3023 H            1 HPA981   0.0000
@<TRIPOS>BOND
     1    1    2       1
     2    1    6       1
     3    2    3       2
     4    3    4       1
     5    4    5       2
     6    4   10       1
     7    5    6       1
     8    5    8       1
     9    6    7       2
    10    8    9       1
    11    9   10       2
    12    1   11       1
    13    2   12       1
    14    9   13       1
    15    8   14       1
@<TRIPOS>SUBSTRUCTURE
     1 HPA981      1 GROUP             4 A     HPA     0 **** HPA A 981
