@<TRIPOS>MOLECULE
3fpk_FAD_1_ligand
   84    89     1     0     0
SMALL
NO_CHARGES


@<TRIPOS>ATOM
     1 PA           8.1670   -25.2900    17.9300 P.3          1 FAD301   0.0000
     2 O1A          7.6200   -24.4410    16.8260 O.co2        1 FAD301   0.0000
     3 O2A          9.5610   -25.8790    17.6510 O.co2        1 FAD301  -1.0000
     4 O5B          7.1100   -26.4090    18.3630 O.3          1 FAD301   0.0000
     5 C5B          5.8550   -25.8570    18.3900 C.3          1 FAD301   0.0000
     6 C4B          4.9180   -26.9800    18.2360 C.3          1 FAD301   0.0000
     7 O4B          4.4410   -27.0920    19.5420 O.3          1 FAD301   0.0000
     8 C3B          3.7920   -26.4660    17.3550 C.3          1 FAD301   0.0000
     9 O3B          3.6400   -27.2320    16.1890 O.3          1 FAD301   0.0000
    10 C2B          2.5590   -26.5610    18.2150 C.3          1 FAD301   0.0000
    11 O2B          2.0030   -27.8530    18.1670 O.3          1 FAD301   0.0000
    12 C1B          3.1430   -26.5360    19.5840 C.3          1 FAD301   0.0000
    13 N9A          2.9870   -25.2900    20.3900 N.pl3        1 FAD301   0.0000
    14 C8A          3.0860   -23.9050    20.2820 C.2          1 FAD301   0.0000
    15 N7A          2.7790   -23.3720    21.5040 N.2          1 FAD301   0.0000
    16 C5A          2.5050   -24.4200    22.3470 C.ar         1 FAD301   0.0000
    17 C6A          2.1120   -24.5900    23.6750 C.ar         1 FAD301   0.0000
    18 N6A          2.0940   -23.6110    24.5820 N.pl3        1 FAD301   0.0000
    19 N1A          1.9150   -25.9060    24.1330 N.ar         1 FAD301   0.0000
    20 C2A          2.0580   -27.0400    23.3610 C.ar         1 FAD301   0.0000
    21 N3A          2.4420   -26.8720    22.0470 N.ar         1 FAD301   0.0000
    22 C4A          2.6360   -25.5930    21.6140 C.ar         1 FAD301   0.0000
    23 N1           3.2750   -18.0570    22.4260 N.2          1 FAD301   0.0000
    24 C2           3.6240   -17.4190    23.6120 C.2          1 FAD301   0.0000
    25 O2           4.1920   -18.0520    24.4760 O.2          1 FAD301   0.0000
    26 N3           3.3170   -16.0830    23.8360 N.pl3        1 FAD301   0.0000
    27 C4           2.6400   -15.3800    22.8700 C.2          1 FAD301   0.0000
    28 O4           2.4010   -14.1690    23.0430 O.2          1 FAD301   0.0000
    29 C4X          2.2770   -16.0190    21.6670 C.2          1 FAD301   0.0000
    30 N5           1.5930   -15.3270    20.7180 N.2          1 FAD301   0.0000
    31 C5X          1.1700   -15.9740    19.5610 C.ar         1 FAD301   0.0000
    32 C6           0.4640   -15.2960    18.5940 C.ar         1 FAD301   0.0000
    33 C7           0.0520   -15.9340    17.4150 C.ar         1 FAD301   0.0000
    34 C7M         -0.7300   -15.1730    16.3890 C.3          1 FAD301   0.0000
    35 C8           0.3730   -17.2900    17.1950 C.ar         1 FAD301   0.0000
    36 C8M         -0.0160   -18.0410    15.9300 C.3          1 FAD301   0.0000
    37 C9           1.1150   -17.9610    18.1450 C.ar         1 FAD301   0.0000
    38 C9A          1.5010   -17.3320    19.3390 C.ar         1 FAD301   0.0000
    39 N10          2.2410   -18.0040    20.2510 N.pl3        1 FAD301   0.0000
    40 C10          2.5620   -17.3820    21.4580 C.2          1 FAD301   0.0000
    41 C1'          2.9560   -19.3180    19.8420 C.3          1 FAD301   0.0000
    42 C2'          4.4160   -19.0580    19.3780 C.3          1 FAD301   0.0000
    43 O2'          4.4220   -18.3890    18.1110 O.3          1 FAD301   0.0000
    44 C3'          5.2260   -20.3550    19.2390 C.3          1 FAD301   0.0000
    45 O3'          4.4370   -21.3290    18.5390 O.3          1 FAD301   0.0000
    46 C4'          5.7210   -20.9290    20.5600 C.3          1 FAD301   0.0000
    47 O4'          6.6360   -20.0300    21.1740 O.3          1 FAD301   0.0000
    48 C5'          6.4320   -22.2680    20.2820 C.3          1 FAD301   0.0000
    49 O5'          7.5500   -22.0430    19.4150 O.3          1 FAD301   0.0000
    50 P            8.8570   -22.9550    19.5130 P.3          1 FAD301   0.0000
    51 O1P          9.7970   -22.5610    18.3880 O.co2        1 FAD301   0.0000
    52 O2P          9.4490   -22.9370    20.8530 O.co2        1 FAD301  -1.0000
    53 O3P          8.2790   -24.4800    19.3040 O.3          1 FAD301   0.0000
    54 H5B1         5.7448   -25.2064    17.6386 H            1 FAD301   0.0000
    55 H5B2         5.6988   -25.3904    19.2606 H            1 FAD301   0.0000
    56 H4B          5.3465   -27.8157    17.8925 H            1 FAD301   0.0000
    57 H3B          3.9619   -25.5109    17.1122 H            1 FAD301   0.0000
    58 H5           4.3168   -27.9681    16.1832 H            1 FAD301   0.0000
    59 H2B          1.8955   -25.8317    18.0479 H            1 FAD301   0.0000
    60 H7           1.1880   -27.8869    18.7455 H            1 FAD301   0.0000
    61 H1B          2.6072   -27.2150    20.0858 H            1 FAD301   0.0000
    62 H8A          3.3361   -23.3930    19.4602 H            1 FAD301   0.0000
    63 H6A1         1.8005   -23.8024    25.5186 H            1 FAD301   0.0000
    64 H6A2         2.3740   -22.6861    24.3250 H            1 FAD301   0.0000
    65 H2A          1.8896   -27.9500    23.7398 H            1 FAD301   0.0000
    66 H13          3.5858   -15.6384    24.6905 H            1 FAD301   0.0000
    67 H14          0.2408   -14.3314    18.7344 H            1 FAD301   0.0000
    68 H7M1        -0.9407   -15.7735    15.6176 H            1 FAD301   0.0000
    69 H7M2        -1.5814   -14.8425    16.7964 H            1 FAD301   0.0000
    70 H7M3        -0.1901   -14.3949    16.0680 H            1 FAD301   0.0000
    71 H8M1         0.3118   -18.9840    15.9880 H            1 FAD301   0.0000
    72 H8M2        -1.0114   -18.0395    15.8342 H            1 FAD301   0.0000
    73 H8M3         0.3959   -17.5931    15.1365 H            1 FAD301   0.0000
    74 H21          1.3821   -18.9105    17.9804 H            1 FAD301   0.0000
    75 H1'1         2.4487   -19.7431    19.0924 H            1 FAD301   0.0000
    76 H1'2         2.9710   -19.9367    20.6275 H            1 FAD301   0.0000
    77 H2'          4.8656   -18.4711    20.0514 H            1 FAD301   0.0000
    78 H25          4.4148   -17.3997    18.2564 H            1 FAD301   0.0000
    79 H3'          6.0278   -20.1531    18.6765 H            1 FAD301   0.0000
    80 H27          5.0399   -21.9400    18.0260 H            1 FAD301   0.0000
    81 H4'          4.9436   -21.0834    21.1698 H            1 FAD301   0.0000
    82 H29          6.2835   -19.7548    22.0684 H            1 FAD301   0.0000
    83 H5'1         5.7928   -22.9005    19.8446 H            1 FAD301   0.0000
    84 H5'2         6.7523   -22.6608    21.1441 H            1 FAD301   0.0000
@<TRIPOS>BOND
     1    1    2      ar
     2    1    3      ar
     3    1    4       1
     4    1   53       1
     5    4    5       1
     6    5    6       1
     7    6    7       1
     8    6    8       1
     9    7   12       1
    10    8    9       1
    11    8   10       1
    12   10   11       1
    13   10   12       1
    14   12   13       1
    15   13   14       1
    16   13   22       1
    17   14   15       2
    18   15   16       1
    19   16   17      ar
    20   16   22      ar
    21   17   18       1
    22   17   19      ar
    23   19   20      ar
    24   20   21      ar
    25   21   22      ar
    26   23   24       1
    27   23   40       2
    28   24   25       2
    29   24   26       1
    30   26   27       1
    31   27   28       2
    32   27   29       1
    33   29   30       2
    34   29   40       1
    35   30   31       1
    36   31   32      ar
    37   31   38      ar
    38   32   33      ar
    39   33   34       1
    40   33   35      ar
    41   35   36       1
    42   35   37      ar
    43   37   38      ar
    44   38   39       1
    45   39   40       1
    46   39   41       1
    47   41   42       1
    48   42   43       1
    49   42   44       1
    50   44   45       1
    51   44   46       1
    52   46   47       1
    53   46   48       1
    54   48   49       1
    55   49   50       1
    56   50   51      ar
    57   50   52      ar
    58   50   53       1
    59   48   84       1
    60    5   54       1
    61    5   55       1
    62    6   56       1
    63    8   57       1
    64    9   58       1
    65   10   59       1
    66   11   60       1
    67   12   61       1
    68   14   62       1
    69   18   63       1
    70   18   64       1
    71   20   65       1
    72   26   66       1
    73   32   67       1
    74   34   68       1
    75   34   69       1
    76   34   70       1
    77   36   71       1
    78   36   72       1
    79   36   73       1
    80   37   74       1
    81   41   75       1
    82   41   76       1
    83   42   77       1
    84   43   78       1
    85   44   79       1
    86   45   80       1
    87   46   81       1
    88   47   82       1
    89   48   83       1
@<TRIPOS>SUBSTRUCTURE
     1 FAD301      1 GROUP             4 A     FAD     0 **** FAD A 301
