@<TRIPOS>MOLECULE
1kbi_FMN_2_ligand
   50    52     1     0     0
SMALL
NO_CHARGES


@<TRIPOS>ATOM
     1 N1          69.2650    56.8700     1.5170 N.2          1 FMN770   0.0000
     2 C2          70.5570    56.6510     1.9010 C.2          1 FMN770   0.0000
     3 O2          71.4120    57.5250     1.8760 O.2          1 FMN770   0.0000
     4 N3          70.8900    55.3410     2.3340 N.pl3        1 FMN770   0.0000
     5 C4          70.0120    54.2660     2.4060 C.2          1 FMN770   0.0000
     6 O4          70.4120    53.1650     2.7940 O.2          1 FMN770   0.0000
     7 C4A         68.6370    54.5410     1.9830 C.2          1 FMN770   0.0000
     8 N5          67.6820    53.5390     1.9950 N.2          1 FMN770   0.0000
     9 C5A         66.3780    53.7950     1.5420 C.ar         1 FMN770   0.0000
    10 C6          65.4040    52.7430     1.5250 C.ar         1 FMN770   0.0000
    11 C7          64.1040    52.9950     1.0290 C.ar         1 FMN770   0.0000
    12 C7M         63.0500    51.8730     0.9850 C.3          1 FMN770   0.0000
    13 C8          63.7520    54.3140     0.5370 C.ar         1 FMN770   0.0000
    14 C8M         62.3900    54.6350    -0.0350 C.3          1 FMN770   0.0000
    15 C9          64.6880    55.3390     0.5710 C.ar         1 FMN770   0.0000
    16 C9A         66.0110    55.1290     1.0620 C.ar         1 FMN770   0.0000
    17 N10         67.0240    56.1580     1.0910 N.pl3        1 FMN770   0.0000
    18 C10         68.3180    55.9040     1.5310 C.2          1 FMN770   0.0000
    19 C1'         66.6950    57.4960     0.6210 C.3          1 FMN770   0.0000
    20 C2'         66.9140    57.6570    -0.8970 C.3          1 FMN770   0.0000
    21 O2'         68.3130    57.6520    -1.2280 O.3          1 FMN770   0.0000
    22 C3'         66.2520    58.9630    -1.4080 C.3          1 FMN770   0.0000
    23 O3'         66.6550    60.0190    -0.5350 O.3          1 FMN770   0.0000
    24 C4'         64.7050    58.9410    -1.5030 C.3          1 FMN770   0.0000
    25 O4'         64.2130    57.6420    -1.7910 O.3          1 FMN770   0.0000
    26 C5'         64.1970    59.9320    -2.5230 C.3          1 FMN770   0.0000
    27 O5'         62.7380    59.9170    -2.3600 O.3          1 FMN770   0.0000
    28 P           61.7140    59.1310    -3.2600 P.3          1 FMN770   0.0000
    29 O1P         61.6520    57.6870    -2.7300 O.co2        1 FMN770   0.0000
    30 O2P         62.1460    59.2030    -4.6710 O.co2        1 FMN770  -1.0000
    31 O3P         60.3810    59.8310    -3.0880 O.co2        1 FMN770  -1.0000
    32 H1          71.8369    55.1776     2.6108 H            1 FMN770   0.0000
    33 H2          65.6435    51.8329     1.8632 H            1 FMN770   0.0000
    34 H7M1        62.1966    52.2320     0.6071 H            1 FMN770   0.0000
    35 H7M2        63.3818    51.1264     0.4084 H            1 FMN770   0.0000
    36 H7M3        62.8872    51.5321     1.9109 H            1 FMN770   0.0000
    37 H8M1        62.3628    55.5955    -0.3121 H            1 FMN770   0.0000
    38 H8M2        62.2169    54.0537    -0.8300 H            1 FMN770   0.0000
    39 H8M3        61.6894    54.4682     0.6588 H            1 FMN770   0.0000
    40 H9          64.4283    56.2473     0.2431 H            1 FMN770   0.0000
    41 H1'1        67.2733    58.1560     1.1006 H            1 FMN770   0.0000
    42 H1'2        65.7346    57.6819     0.8283 H            1 FMN770   0.0000
    43 H2'         66.4799    56.8840    -1.3597 H            1 FMN770   0.0000
    44 H13         68.6096    56.7141    -1.4081 H            1 FMN770   0.0000
    45 H3'         66.6154    59.1585    -2.3189 H            1 FMN770   0.0000
    46 H15         67.1454    60.7156    -1.0587 H            1 FMN770   0.0000
    47 H4'         64.3427    59.2115    -0.6110 H            1 FMN770   0.0000
    48 H17         63.3600    57.7156    -2.3078 H            1 FMN770   0.0000
    49 H5'1        64.4518    59.6488    -3.4476 H            1 FMN770   0.0000
    50 H5'2        64.5631    60.8446    -2.3412 H            1 FMN770   0.0000
@<TRIPOS>BOND
     1    1    2       1
     2    1   18       2
     3    2    3       2
     4    2    4       1
     5    4    5       1
     6    5    6       2
     7    5    7       1
     8    7    8       2
     9    7   18       1
    10    8    9       1
    11    9   10      ar
    12    9   16      ar
    13   10   11      ar
    14   11   12       1
    15   11   13      ar
    16   13   14       1
    17   13   15      ar
    18   15   16      ar
    19   16   17       1
    20   17   18       1
    21   17   19       1
    22   19   20       1
    23   20   21       1
    24   20   22       1
    25   22   23       1
    26   22   24       1
    27   24   25       1
    28   24   26       1
    29   26   27       1
    30   27   28       1
    31   28   29      ar
    32   28   30      ar
    33   28   31      ar
    34    4   32       1
    35   10   33       1
    36   12   34       1
    37   12   35       1
    38   12   36       1
    39   14   37       1
    40   14   38       1
    41   14   39       1
    42   15   40       1
    43   19   41       1
    44   19   42       1
    45   20   43       1
    46   21   44       1
    47   22   45       1
    48   23   46       1
    49   24   47       1
    50   25   48       1
    51   26   49       1
    52   26   50       1
@<TRIPOS>SUBSTRUCTURE
     1 FMN770      1 GROUP             4 A     FMN     0 **** FMN A 770
