@<TRIPOS>MOLECULE
3il5_B82_4_ligand
   45    46     1     0     0
SMALL
NO_CHARGES


@<TRIPOS>ATOM
     1 S1        -204.4450   139.5730   -11.8080 S.o2         1 B82401   0.0000
     2 O26       -203.0630   139.9770   -11.6240 O.2          1 B82401   0.0000
     3 O25       -204.7780   138.1980   -11.5070 O.2          1 B82401   0.0000
     4 N20       -204.9740   139.9200   -13.4560 N.3          1 B82401   0.0000
     5 C23       -206.4300   139.5580   -13.7220 C.3          1 B82401   0.0000
     6 C24       -206.7300   139.0810   -15.1410 C.3          1 B82401   0.0000
     7 C21       -204.6160   141.4080   -13.8090 C.3          1 B82401   0.0000
     8 C22       -205.6990   142.3520   -14.3600 C.3          1 B82401   0.0000
     9 C2        -205.4990   140.5400   -10.6780 C.ar         1 B82401   0.0000
    10 C18       -205.2860   141.9540   -10.2590 C.ar         1 B82401   0.0000
    11 BR        -203.8450   143.1260   -10.7860 Br           1 B82401   0.0000
    12 C17       -206.2470   142.5670    -9.3420 C.ar         1 B82401   0.0000
    13 C16       -207.3750   141.8300    -8.8410 C.ar         1 B82401   0.0000
    14 C4        -207.5780   140.4530    -9.2420 C.ar         1 B82401   0.0000
    15 C5        -208.7120   139.6180    -8.7400 C.2          1 B82401   0.0000
    16 O15       -209.1120   138.6610    -9.4120 O.2          1 B82401   0.0000
    17 N6        -209.1690   140.0510    -7.4830 N.am         1 B82401   0.0000
    18 C7        -210.1980   139.5190    -6.6230 C.ar         1 B82401   0.0000
    19 C14       -210.9780   138.3270    -6.9480 C.ar         1 B82401   0.0000
    20 C13       -211.9870   137.8250    -6.0680 C.ar         1 B82401   0.0000
    21 C12       -212.2550   138.4970    -4.8330 C.ar         1 B82401   0.0000
    22 C11       -211.5160   139.6740    -4.4710 C.ar         1 B82401   0.0000
    23 C8        -210.4720   140.2210    -5.3430 C.ar         1 B82401   0.0000
    24 C9        -209.7310   141.4940    -4.8750 C.2          1 B82401   0.0000
    25 O45       -208.7890   141.9420    -5.6120 O.co2        1 B82401   0.0000
    26 O10       -210.1120   142.0400    -3.7820 O.co2        1 B82401  -1.0000
    27 C3        -206.6470   139.8310   -10.1480 C.ar         1 B82401   0.0000
    28 H1        -206.9883   140.3681   -13.5430 H            1 B82401   0.0000
    29 H2        -206.6885   138.8284   -13.0888 H            1 B82401   0.0000
    30 H3        -207.7036   138.8675   -15.2221 H            1 B82401   0.0000
    31 H4        -206.4914   139.8014   -15.7923 H            1 B82401   0.0000
    32 H5        -206.1915   138.2617   -15.3381 H            1 B82401   0.0000
    33 H6        -203.8873   141.3747   -14.4931 H            1 B82401   0.0000
    34 H7        -204.2674   141.8273   -12.9708 H            1 B82401   0.0000
    35 H8        -205.3008   143.2537   -14.5287 H            1 B82401   0.0000
    36 H9        -206.0600   141.9816   -15.2159 H            1 B82401   0.0000
    37 H10       -206.4400   142.4342   -13.6936 H            1 B82401   0.0000
    38 H11       -206.1167   143.5170    -9.0582 H            1 B82401   0.0000
    39 H12       -208.0201   142.2683    -8.2151 H            1 B82401   0.0000
    40 H13       -208.7042   140.8613    -7.1261 H            1 B82401   0.0000
    41 H14       -210.8015   137.8496    -7.8088 H            1 B82401   0.0000
    42 H15       -212.5046   137.0058    -6.3150 H            1 B82401   0.0000
    43 H16       -212.9610   138.1448    -4.2186 H            1 B82401   0.0000
    44 H17       -211.7181   140.1308    -3.6047 H            1 B82401   0.0000
    45 H18       -206.7972   138.8805   -10.4199 H            1 B82401   0.0000
@<TRIPOS>BOND
     1    1    2       2
     2    1    3       2
     3    1    4       1
     4    1    9       1
     5    4    5       1
     6    4    7       1
     7    5    6       1
     8    7    8       1
     9    9   10      ar
    10    9   27      ar
    11   10   11       1
    12   10   12      ar
    13   12   13      ar
    14   13   14      ar
    15   14   15       1
    16   14   27      ar
    17   15   16       2
    18   15   17      am
    19   17   18       1
    20   18   19      ar
    21   18   23      ar
    22   19   20      ar
    23   20   21      ar
    24   21   22      ar
    25   22   23      ar
    26   23   24       1
    27   24   25      ar
    28   24   26      ar
    29    5   28       1
    30    5   29       1
    31    6   30       1
    32    6   31       1
    33    6   32       1
    34    7   33       1
    35    7   34       1
    36    8   35       1
    37    8   36       1
    38    8   37       1
    39   12   38       1
    40   13   39       1
    41   17   40       1
    42   19   41       1
    43   20   42       1
    44   21   43       1
    45   22   44       1
    46   27   45       1
@<TRIPOS>SUBSTRUCTURE
     1 B82401      1 GROUP             4 D     B82     0 **** B82 D 401
