@<TRIPOS>MOLECULE
1jtk_THU_1_ligand
   32    33     1     0     0
SMALL
NO_CHARGES


@<TRIPOS>ATOM
     1 N1           4.1810    65.1030    56.9170 N.am         1 THU138   0.0000
     2 C2           4.8870    66.2580    57.0070 C.2          1 THU138   0.0000
     3 O2           4.8290    67.1190    56.1410 O.2          1 THU138   0.0000
     4 N3           5.6620    66.4490    58.1050 N.am         1 THU138   0.0000
     5 C4           5.7660    65.4580    59.1740 C.3          1 THU138   0.0000
     6 O4           7.0840    64.9420    59.3370 O.3          1 THU138   0.0000
     7 C5           4.8290    64.2270    59.0440 C.3          1 THU138   0.0000
     8 C6           4.5860    63.9280    57.5570 C.3          1 THU138   0.0000
     9 C1'          3.7870    64.6280    55.4010 C.3          1 THU138   0.0000
    10 C2'          4.3410    64.3310    54.0460 C.3          1 THU138   0.0000
    11 C3'          3.1050    63.8930    53.3570 C.3          1 THU138   0.0000
    12 O3'          2.7770    64.7540    52.3140 O.3          1 THU138   0.0000
    13 C4'          1.9630    63.8290    54.3830 C.3          1 THU138   0.0000
    14 O4'          2.3900    64.4340    55.6000 O.3          1 THU138   0.0000
    15 C5'          1.4050    62.4510    54.5910 C.3          1 THU138   0.0000
    16 O5'          2.4550    61.6510    55.1550 O.3          1 THU138   0.0000
    17 H1           6.1813    67.2998    58.1854 H            1 THU138   0.0000
    18 H2           5.5250    65.9209    60.0270 H            1 THU138   0.0000
    19 H3           7.5846    65.5074    59.9925 H            1 THU138   0.0000
    20 H4           3.9567    64.4225    59.4922 H            1 THU138   0.0000
    21 H5           5.2568    63.4344    59.4785 H            1 THU138   0.0000
    22 H6           5.4309    63.5931    57.1399 H            1 THU138   0.0000
    23 H7           3.8718    63.2338    57.4669 H            1 THU138   0.0000
    24 H1'          3.6258    65.5787    55.1360 H            1 THU138   0.0000
    25 H2'1         5.0272    63.6042    54.0762 H            1 THU138   0.0000
    26 H2'2         4.7359    65.1447    53.6194 H            1 THU138   0.0000
    27 H3'          3.2528    62.9773    52.9833 H            1 THU138   0.0000
    28 H12          1.9408    64.4344    51.8684 H            1 THU138   0.0000
    29 H4'          1.2187    64.3924    54.0243 H            1 THU138   0.0000
    30 H5'1         1.1111    62.0644    53.7168 H            1 THU138   0.0000
    31 H5'2         0.6268    62.4871    55.2180 H            1 THU138   0.0000
    32 H5'          2.1199    60.7214    55.3087 H            1 THU138   0.0000
@<TRIPOS>BOND
     1    1    2      am
     2    1    8       1
     3    1    9       1
     4    2    3       2
     5    2    4      am
     6    4    5       1
     7    5    6       1
     8    5    7       1
     9    7    8       1
    10    9   10       1
    11    9   14       1
    12   10   11       1
    13   11   12       1
    14   11   13       1
    15   13   14       1
    16   13   15       1
    17   15   16       1
    18    4   17       1
    19    5   18       1
    20    6   19       1
    21    7   20       1
    22    7   21       1
    23    8   22       1
    24    8   23       1
    25    9   24       1
    26   10   25       1
    27   10   26       1
    28   11   27       1
    29   12   28       1
    30   13   29       1
    31   15   30       1
    32   15   31       1
    33   16   32       1
@<TRIPOS>SUBSTRUCTURE
     1 THU138      1 GROUP             4 A     THU     0 **** THU A 138
