@<TRIPOS>MOLECULE
2fa3_ACO_1_ligand
   85    87     1     0     0
SMALL
NO_CHARGES


@<TRIPOS>ATOM
     1 N1A         39.2180     0.9520     2.9810 N.ar         1 ACO796   0.0000
     2 C2A         38.3070     0.1550     3.5820 C.ar         1 ACO796   0.0000
     3 N3A         38.4280    -0.1450     4.8860 N.ar         1 ACO796   0.0000
     4 C4A         39.4690     0.3520     5.6360 C.ar         1 ACO796   0.0000
     5 C5A         40.4210     1.1530     5.0810 C.ar         1 ACO796   0.0000
     6 C6A         40.2750     1.4800     3.6600 C.ar         1 ACO796   0.0000
     7 N6A         41.2030     2.2710     3.0910 N.pl3        1 ACO796   0.0000
     8 N7A         41.3070     1.4910     6.0430 N.2          1 ACO796   0.0000
     9 C8A         40.9210     0.9280     7.2070 C.2          1 ACO796   0.0000
    10 N9A         39.8300     0.2160     6.9150 N.pl3        1 ACO796   0.0000
    11 C1B         38.9900    -0.5110     7.8620 C.3          1 ACO796   0.0000
    12 C2B         39.6940    -1.2720     8.9430 C.3          1 ACO796   0.0000
    13 O2B         40.0880    -2.5230     8.4220 O.3          1 ACO796   0.0000
    14 C3B         38.5480    -1.3150     9.9250 C.3          1 ACO796   0.0000
    15 O3B         37.4480    -2.0230     9.3560 O.3          1 ACO796   0.0000
    16 P3B         37.0420    -3.5500     9.7410 P.3          1 ACO796   0.0000
    17 O7A         36.5850    -3.4980    11.1780 O.co2        1 ACO796   0.0000
    18 O8A         35.9310    -3.6850     8.7190 O.co2        1 ACO796  -1.0000
    19 O9A         38.3280    -4.3410     9.5410 O.co2        1 ACO796  -1.0000
    20 C4B         38.0470     0.1200     9.9010 C.3          1 ACO796   0.0000
    21 O4B         38.3140     0.5600     8.5670 O.3          1 ACO796   0.0000
    22 C5B         38.6370     1.0280    10.9920 C.3          1 ACO796   0.0000
    23 O5B         40.0310     0.9480    10.8180 O.3          1 ACO796   0.0000
    24 P1A         41.0330     0.7830    12.0420 P.3          1 ACO796   0.0000
    25 O1A         42.3820     0.4730    11.4270 O.co2        1 ACO796   0.0000
    26 O2A         40.4360     0.0220    13.2000 O.co2        1 ACO796  -1.0000
    27 O3A         41.1430     2.3540    12.3890 O.3          1 ACO796   0.0000
    28 P2A         40.8500     3.0770    13.7890 P.3          1 ACO796   0.0000
    29 O4A         40.7170     4.5080    13.3440 O.co2        1 ACO796   0.0000
    30 O5A         41.9040     2.5940    14.7590 O.co2        1 ACO796  -1.0000
    31 O6A         39.4010     2.5630    14.3090 O.3          1 ACO796   0.0000
    32 CBP         37.5100     3.3860    15.7130 C.3          1 ACO796   0.0000
    33 CCP         38.2630     3.4270    14.3770 C.3          1 ACO796   0.0000
    34 CDP         36.0640     2.9180    15.4810 C.3          1 ACO796   0.0000
    35 CEP         38.1680     2.4560    16.7440 C.3          1 ACO796   0.0000
    36 CAP         37.5270     4.8540    16.1660 C.3          1 ACO796   0.0000
    37 OAP         36.8910     5.6120    15.1190 O.3          1 ACO796   0.0000
    38 C9P         36.8400     5.1620    17.4830 C.2          1 ACO796   0.0000
    39 O9P         37.3110     4.9100    18.5910 O.2          1 ACO796   0.0000
    40 N8P         35.6860     5.7650    17.3100 N.am         1 ACO796   0.0000
    41 C7P         34.7380     6.2010    18.3000 C.3          1 ACO796   0.0000
    42 C6P         33.6030     5.1730    18.2070 C.3          1 ACO796   0.0000
    43 C5P         32.8880     5.1570    19.5380 C.2          1 ACO796   0.0000
    44 O5P         32.5520     6.1960    20.1090 O.2          1 ACO796   0.0000
    45 N4P         32.6570     3.9830    20.1090 N.am         1 ACO796   0.0000
    46 C3P         32.8760     2.6070    19.6850 C.3          1 ACO796   0.0000
    47 C2P         31.4530     2.1100    19.3470 C.3          1 ACO796   0.0000
    48 S1P         30.2130     2.1270    20.6540 S.3          1 ACO796   0.0000
    49 C           29.3000     3.6570    20.8330 C.2          1 ACO796   0.0000
    50 O           27.9660     3.6210    21.3490 O.2          1 ACO796   0.0000
    51 CH3         29.8190     4.9990    20.3100 C.3          1 ACO796   0.0000
    52 H2A         37.5408    -0.2124     3.0548 H            1 ACO796   0.0000
    53 H6A1        41.9580     2.6303     3.6395 H            1 ACO796   0.0000
    54 H6A2        41.1376     2.4995     2.1197 H            1 ACO796   0.0000
    55 H8A         41.3598     1.0239     8.1004 H            1 ACO796   0.0000
    56 H1B         38.3337    -1.0942     7.3834 H            1 ACO796   0.0000
    57 H2B         40.4731    -0.7615     9.3067 H            1 ACO796   0.0000
    58 H7          39.6590    -3.2547     8.9517 H            1 ACO796   0.0000
    59 H3B         38.8080    -1.6369    10.8354 H            1 ACO796   0.0000
    60 H4B         37.0547     0.0997    10.0236 H            1 ACO796   0.0000
    61 H5B1        38.3768     0.7006    11.9004 H            1 ACO796   0.0000
    62 H5B2        38.3216     1.9696    10.8741 H            1 ACO796   0.0000
    63 HCP1        37.6269     3.1628    13.6520 H            1 ACO796   0.0000
    64 HCP2        38.5736     4.3649    14.2225 H            1 ACO796   0.0000
    65 HDP1        35.5776     2.8929    16.3544 H            1 ACO796   0.0000
    66 HDP2        35.6035     3.5533    14.8610 H            1 ACO796   0.0000
    67 HDP3        36.0705     2.0034    15.0767 H            1 ACO796   0.0000
    68 HEP1        37.6369     2.4688    17.5912 H            1 ACO796   0.0000
    69 HEP2        38.1961     1.5241    16.3823 H            1 ACO796   0.0000
    70 HEP3        39.0992     2.7698    16.9295 H            1 ACO796   0.0000
    71 HAP         38.4798     5.1503    16.2328 H            1 ACO796   0.0000
    72 H21         37.5342     6.2877    14.7589 H            1 ACO796   0.0000
    73 H8P         35.4317     5.9457    16.3599 H            1 ACO796   0.0000
    74 H7P1        34.4032     7.1198    18.0909 H            1 ACO796   0.0000
    75 H7P2        35.1486     6.1954    19.2118 H            1 ACO796   0.0000
    76 H6P1        33.9790     4.2672    18.0114 H            1 ACO796   0.0000
    77 H6P2        32.9662     5.4334    17.4813 H            1 ACO796   0.0000
    78 H4P         32.2480     4.0577    21.0185 H            1 ACO796   0.0000
    79 H3P1        33.2794     2.0647    20.4220 H            1 ACO796   0.0000
    80 H3P2        33.4691     2.5698    18.8807 H            1 ACO796   0.0000
    81 H2P1        31.5364     1.1654    19.0295 H            1 ACO796   0.0000
    82 H2P2        31.1078     2.6824    18.6032 H            1 ACO796   0.0000
    83 HH31        29.1539     5.7168    20.5160 H            1 ACO796   0.0000
    84 HH32        30.6898     5.2147    20.7518 H            1 ACO796   0.0000
    85 HH33        29.9523     4.9421    19.3206 H            1 ACO796   0.0000
@<TRIPOS>BOND
     1    1    2      ar
     2    1    6      ar
     3    2    3      ar
     4    3    4      ar
     5    4    5      ar
     6    4   10       1
     7    5    6      ar
     8    5    8       1
     9    6    7       1
    10    8    9       2
    11    9   10       1
    12   10   11       1
    13   11   12       1
    14   11   21       1
    15   12   13       1
    16   12   14       1
    17   14   15       1
    18   14   20       1
    19   15   16       1
    20   16   17      ar
    21   16   18      ar
    22   16   19      ar
    23   20   21       1
    24   20   22       1
    25   22   23       1
    26   23   24       1
    27   24   25      ar
    28   24   26      ar
    29   24   27       1
    30   27   28       1
    31   28   29      ar
    32   28   30      ar
    33   28   31       1
    34   31   33       1
    35   32   33       1
    36   32   34       1
    37   32   35       1
    38   32   36       1
    39   36   37       1
    40   36   38       1
    41   38   39       2
    42   38   40      am
    43   40   41       1
    44   41   42       1
    45   42   43       1
    46   43   44       2
    47   43   45      am
    48   45   46       1
    49   46   47       1
    50   47   48       1
    51   48   49       1
    52   49   50       2
    53   49   51       1
    54    2   52       1
    55    7   53       1
    56    7   54       1
    57    9   55       1
    58   11   56       1
    59   12   57       1
    60   13   58       1
    61   14   59       1
    62   51   85       1
    63   51   84       1
    64   20   60       1
    65   22   61       1
    66   22   62       1
    67   51   83       1
    68   47   82       1
    69   33   63       1
    70   33   64       1
    71   34   65       1
    72   34   66       1
    73   34   67       1
    74   35   68       1
    75   35   69       1
    76   35   70       1
    77   36   71       1
    78   37   72       1
    79   40   73       1
    80   41   74       1
    81   41   75       1
    82   42   76       1
    83   42   77       1
    84   45   78       1
    85   46   79       1
    86   46   80       1
    87   47   81       1
@<TRIPOS>SUBSTRUCTURE
     1 ACO796      1 GROUP             4 A     ACO     0 **** ACO A 796
