@<TRIPOS>MOLECULE
4es5_MGT_4_ligand
   49    51     1     0     0
SMALL
NO_CHARGES


@<TRIPOS>ATOM
     1 PG          31.1760    -0.5770    38.8340 P.3          1 MGT501   0.0000
     2 O1G         30.2490    -1.5820    38.1570 O.co2        1 MGT501   0.0000
     3 O2G         30.7280    -0.1490    40.2040 O.co2        1 MGT501  -1.0000
     4 O3G         31.6960     0.5510    37.9720 O.co2        1 MGT501  -1.0000
     5 O3B         32.5310    -1.4470    39.0010 O.3          1 MGT501   0.0000
     6 PB          33.6450    -1.0160    40.0690 P.3          1 MGT501   0.0000
     7 O1B         33.4210     0.4500    40.3780 O.co2        1 MGT501   0.0000
     8 O2B         35.0230    -1.4910    39.6300 O.co2        1 MGT501  -1.0000
     9 O3A         33.1080    -2.0290    41.2140 O.3          1 MGT501   0.0000
    10 PA          32.6060    -1.7440    42.7360 P.3          1 MGT501   0.0000
    11 O1A         31.1010    -1.5970    42.7550 O.co2        1 MGT501   0.0000
    12 O2A         33.5790    -0.7150    43.2590 O.co2        1 MGT501  -1.0000
    13 O5'         32.9220    -3.1760    43.3890 O.3          1 MGT501   0.0000
    14 C5'         33.3430    -4.2760    42.5840 C.3          1 MGT501   0.0000
    15 C4'         32.1300    -5.0280    42.0480 C.3          1 MGT501   0.0000
    16 O4'         30.9400    -4.7670    42.7820 O.3          1 MGT501   0.0000
    17 C3'         31.8130    -4.6630    40.6020 C.3          1 MGT501   0.0000
    18 O3'         32.1210    -5.8360    39.8520 O.3          1 MGT501   0.0000
    19 C2'         30.3210    -4.3510    40.5430 C.3          1 MGT501   0.0000
    20 O2'         29.6380    -5.0160    39.4600 O.3          1 MGT501   0.0000
    21 C1'         29.8610    -4.9630    41.8490 C.3          1 MGT501   0.0000
    22 N9          28.5560    -4.4710    42.2950 N.pl3        1 MGT501   0.0000
    23 C8          28.4180    -3.2520    43.1080 C.3          1 MGT501   0.0000
    24 N7          26.9820    -3.2260    43.5460 N.pl3        1 MGT501   0.0000
    25 CM7         26.7620    -3.0370    44.9720 C.3          1 MGT501   0.0000
    26 C5          26.4180    -4.4100    43.0350 C.2          1 MGT501   0.0000
    27 C6          25.0460    -4.9530    43.1250 C.2          1 MGT501   0.0000
    28 O6          24.1380    -4.3960    43.7890 O.2          1 MGT501   0.0000
    29 N1          24.7840    -6.0990    42.4710 N.2          1 MGT501   0.0000
    30 C2          25.7030    -6.7580    41.7400 C.2          1 MGT501   0.0000
    31 N2          25.2800    -7.9000    41.1380 N.pl3        1 MGT501   0.0000
    32 N3          26.9860    -6.2990    41.5920 N.pl3        1 MGT501   0.0000
    33 C4          27.3550    -5.1450    42.2010 C.2          1 MGT501   0.0000
    34 H5'1        33.8991    -4.8966    43.1368 H            1 MGT501   0.0000
    35 H5'2        33.8865    -3.9354    41.8168 H            1 MGT501   0.0000
    36 H4'         32.3206    -6.0087    42.0924 H            1 MGT501   0.0000
    37 H3'         32.3592    -3.8831    40.2965 H            1 MGT501   0.0000
    38 H5          31.2990    -6.1558    39.3808 H            1 MGT501   0.0000
    39 H2'         30.1562    -3.3648    40.5257 H            1 MGT501   0.0000
    40 H7          29.2269    -4.3333    38.8560 H            1 MGT501   0.0000
    41 H1'         29.7721    -5.9479    41.7004 H            1 MGT501   0.0000
    42 H9          28.6323    -2.4416    42.5628 H            1 MGT501   0.0000
    43 H10         29.0253    -3.2900    43.9016 H            1 MGT501   0.0000
    44 HM71        25.7799    -3.0344    45.1603 H            1 MGT501   0.0000
    45 HM72        27.1964    -3.7822    45.4779 H            1 MGT501   0.0000
    46 HM73        27.1585    -2.1646    45.2577 H            1 MGT501   0.0000
    47 H14         25.9142    -8.4360    40.5808 H            1 MGT501   0.0000
    48 H15         24.3344    -8.2047    41.2521 H            1 MGT501   0.0000
    49 H16         27.6442    -6.8107    41.0397 H            1 MGT501   0.0000
@<TRIPOS>BOND
     1    1    2      ar
     2    1    3      ar
     3    1    4      ar
     4    1    5       1
     5    5    6       1
     6    6    7      ar
     7    6    8      ar
     8    6    9       1
     9    9   10       1
    10   10   11      ar
    11   10   12      ar
    12   10   13       1
    13   13   14       1
    14   14   15       1
    15   15   16       1
    16   15   17       1
    17   16   21       1
    18   17   18       1
    19   17   19       1
    20   19   20       1
    21   19   21       1
    22   21   22       1
    23   22   23       1
    24   22   33       1
    25   23   24       1
    26   24   25       1
    27   24   26       1
    28   26   27       1
    29   26   33       2
    30   27   28       2
    31   27   29       1
    32   29   30       2
    33   30   31       1
    34   30   32       1
    35   32   33       1
    36   31   48       1
    37   31   47       1
    38   25   45       1
    39   25   46       1
    40   14   34       1
    41   14   35       1
    42   15   36       1
    43   17   37       1
    44   18   38       1
    45   19   39       1
    46   20   40       1
    47   21   41       1
    48   23   42       1
    49   23   43       1
    50   25   44       1
    51   32   49       1
@<TRIPOS>SUBSTRUCTURE
     1 MGT501      1 GROUP             4 D     MGT     0 **** MGT D 501
