@<TRIPOS>MOLECULE
3frk_TQP_2_ligand
   81    84     1     0     0
SMALL
NO_CHARGES


@<TRIPOS>ATOM
     1 O2P         34.8660   -15.4320   -14.7390 O.co2        1 TQP374   0.0000
     2 P           34.3720   -14.1490   -15.5690 P.3          1 TQP374   0.0000
     3 O3P         34.5350   -12.8850   -14.6120 O.co2        1 TQP374  -1.0000
     4 O1P         32.9690   -14.3240   -15.9890 O.co2        1 TQP374  -1.0000
     5 O4P         35.2900   -13.9090   -16.8780 O.3          1 TQP374   0.0000
     6 C5'         36.6380   -14.3500   -16.6210 C.3          1 TQP374   0.0000
     7 C5P         37.5150   -13.7060   -17.6650 C.2          1 TQP374   0.0000
     8 C4P         37.5780   -12.3070   -17.7670 C.2          1 TQP374   0.0000
     9 C4'         36.8540   -11.4210   -16.8530 C.2          1 TQP374   0.0000
    10 C3P         38.3910   -11.7390   -18.7630 C.2          1 TQP374   0.0000
    11 O3'         38.4570   -10.3900   -18.9060 O.2          1 TQP374   0.0000
    12 C2P         39.1130   -12.5650   -19.6080 C.2          1 TQP374   0.0000
    13 C2'         39.9730   -11.9670   -20.6980 C.3          1 TQP374   0.0000
    14 N1P         39.0360   -13.8690   -19.4760 N.2          1 TQP374   0.0000
    15 C6P         38.2710   -14.4440   -18.5550 C.2          1 TQP374   0.0000
    16 O4          27.4380    -5.1110   -10.3450 O.2          1 TQP374   0.0000
    17 C4          28.2730    -4.2880   -10.7150 C.2          1 TQP374   0.0000
    18 N3          27.9200    -2.9930   -10.8380 N.pl3        1 TQP374   0.0000
    19 C2          28.8150    -2.0850   -11.2690 C.2          1 TQP374   0.0000
    20 O2          28.4960    -0.9100   -11.3850 O.2          1 TQP374   0.0000
    21 C5          29.6030    -4.6760   -11.0200 C.2          1 TQP374   0.0000
    22 C5M         30.0170    -6.1160   -10.8730 C.3          1 TQP374   0.0000
    23 C6          30.4780    -3.7430   -11.4580 C.2          1 TQP374   0.0000
    24 N1          30.0630    -2.4470   -11.5860 N.pl3        1 TQP374   0.0000
    25 C1'         30.9930    -1.4400   -12.0980 C.3          1 TQP374   0.0000
    26 O4'         31.6210    -1.9850   -13.2720 O.3          1 TQP374   0.0000
    27 C2H         32.0690    -1.0470   -11.0980 C.3          1 TQP374   0.0000
    28 C3'         33.4020    -1.3250   -11.8150 C.3          1 TQP374   0.0000
    29 O3H         34.1790    -0.1310   -11.7770 O.3          1 TQP374   0.0000
    30 C4H         33.0600    -1.6900   -13.2790 C.3          1 TQP374   0.0000
    31 C5H         33.9790    -2.8550   -13.7060 C.3          1 TQP374   0.0000
    32 O5'         33.6950    -3.7230   -12.5640 O.3          1 TQP374   0.0000
    33 PA          34.9550    -4.6330   -11.9770 P.3          1 TQP374   0.0000
    34 O1A         34.1530    -5.5190   -11.0640 O.co2        1 TQP374   0.0000
    35 O2A         36.0010    -3.6870   -11.1660 O.co2        1 TQP374  -1.0000
    36 O3A         35.8820    -5.7390   -12.7130 O.3          1 TQP374   0.0000
    37 PB          36.9370    -5.2320   -13.8000 P.3          1 TQP374   0.0000
    38 O1B         38.2930    -5.1680   -13.1450 O.co2        1 TQP374   0.0000
    39 O2B         36.6370    -3.7520   -14.3360 O.co2        1 TQP374  -1.0000
    40 O3B         37.0580    -6.3810   -14.8780 O.3          1 TQP374   0.0000
    41 O4Q         35.2680   -10.4160   -14.8240 O.3          1 TQP374   0.0000
    42 C4Q         36.5410    -9.8220   -14.5290 C.3          1 TQP374   0.0000
    43 C5Q         36.4090    -8.7480   -13.4440 C.3          1 TQP374   0.0000
    44 O5Q         37.6600    -8.0670   -13.1870 O.3          1 TQP374   0.0000
    45 C6Q         35.9510    -9.4940   -12.1750 C.3          1 TQP374   0.0000
    46 C3Q         37.1290    -9.2370   -15.8120 C.3          1 TQP374   0.0000
    47 N3Q         37.4830   -10.3360   -16.7240 N.pl3        1 TQP374   0.0000
    48 C2Q         38.3880    -8.4270   -15.4890 C.3          1 TQP374   0.0000
    49 O2Q         38.7450    -7.7050   -16.6730 O.3          1 TQP374   0.0000
    50 C1Q         38.0230    -7.4140   -14.4060 C.3          1 TQP374   0.0000
    51 H5'1        36.6935   -15.3459   -16.6918 H            1 TQP374   0.0000
    52 H5'2        36.9250   -14.0643   -15.7067 H            1 TQP374   0.0000
    53 H4'         35.9908   -11.6431   -16.3995 H            1 TQP374   0.0000
    54 H2'1        40.4203   -12.7005   -21.2098 H            1 TQP374   0.0000
    55 H2'2        39.4005   -11.4296   -21.3172 H            1 TQP374   0.0000
    56 H2'3        40.6671   -11.3753   -20.2880 H            1 TQP374   0.0000
    57 H6P         38.2414   -15.4423   -18.5043 H            1 TQP374   0.0000
    58 H8          26.9900    -2.7060   -10.6083 H            1 TQP374   0.0000
    59 H5M1        30.9792    -6.2138   -11.1272 H            1 TQP374   0.0000
    60 H5M2        29.8922    -6.4034    -9.9234 H            1 TQP374   0.0000
    61 H5M3        29.4546    -6.6872   -11.4708 H            1 TQP374   0.0000
    62 H12         31.4177    -3.9981   -11.6856 H            1 TQP374   0.0000
    63 H1'         30.4767    -0.6234   -12.3561 H            1 TQP374   0.0000
    64 H2H1        31.9951    -1.5991   -10.2675 H            1 TQP374   0.0000
    65 H2H2        31.9924    -0.0782   -10.8622 H            1 TQP374   0.0000
    66 H3'         33.8901    -2.0761   -11.3705 H            1 TQP374   0.0000
    67 H3H         35.0526    -0.2870   -12.2381 H            1 TQP374   0.0000
    68 H4H         33.2330    -0.8994   -13.8664 H            1 TQP374   0.0000
    69 H5H1        34.9412    -2.5869   -13.7544 H            1 TQP374   0.0000
    70 H5H2        33.7025    -3.2628   -14.5762 H            1 TQP374   0.0000
    71 H4Q         35.3071   -11.3977   -14.6379 H            1 TQP374   0.0000
    72 H22         37.1554   -10.5369   -14.1952 H            1 TQP374   0.0000
    73 H5Q         35.7127    -8.0824   -13.7126 H            1 TQP374   0.0000
    74 H6Q1        35.8460    -8.8416   -11.4244 H            1 TQP374   0.0000
    75 H6Q2        35.0754    -9.9439   -12.3506 H            1 TQP374   0.0000
    76 H6Q3        36.6346   -10.1804   -11.9268 H            1 TQP374   0.0000
    77 H3Q         36.4530    -8.6440   -16.2495 H            1 TQP374   0.0000
    78 H2Q         39.1338    -9.0223   -15.1902 H            1 TQP374   0.0000
    79 H29         38.7325    -6.7236   -16.4815 H            1 TQP374   0.0000
    80 H1Q         38.8686    -6.9197   -14.2045 H            1 TQP374   0.0000
    81 H31         38.2959   -10.2111   -17.2929 H            1 TQP374   0.0000
@<TRIPOS>BOND
     1    1    2      ar
     2    2    3      ar
     3    2    4      ar
     4    2    5       1
     5    5    6       1
     6    6    7       1
     7    7    8       1
     8    7   15       2
     9    8    9       2
    10    8   10       1
    11    9   47       1
    12   10   11       2
    13   10   12       1
    14   12   13       1
    15   12   14       2
    16   14   15       1
    17   16   17       2
    18   17   18       1
    19   17   21       1
    20   18   19       1
    21   19   20       2
    22   19   24       1
    23   21   22       1
    24   21   23       2
    25   23   24       1
    26   24   25       1
    27   25   26       1
    28   25   27       1
    29   26   30       1
    30   27   28       1
    31   28   29       1
    32   28   30       1
    33   30   31       1
    34   31   32       1
    35   32   33       1
    36   33   34      ar
    37   33   35      ar
    38   33   36       1
    39   36   37       1
    40   37   38      ar
    41   37   39      ar
    42   37   40       1
    43   40   50       1
    44   41   42       1
    45   42   43       1
    46   42   46       1
    47   43   44       1
    48   43   45       1
    49   44   50       1
    50   46   47       1
    51   46   48       1
    52   48   49       1
    53   48   50       1
    54   50   80       1
    55   49   79       1
    56    6   51       1
    57    6   52       1
    58    9   53       1
    59   48   78       1
    60   13   54       1
    61   13   55       1
    62   13   56       1
    63   15   57       1
    64   18   58       1
    65   22   59       1
    66   22   60       1
    67   22   61       1
    68   23   62       1
    69   25   63       1
    70   27   64       1
    71   27   65       1
    72   28   66       1
    73   29   67       1
    74   30   68       1
    75   31   69       1
    76   31   70       1
    77   46   77       1
    78   45   76       1
    79   41   71       1
    80   42   72       1
    81   43   73       1
    82   45   74       1
    83   45   75       1
    84   47   81       1
@<TRIPOS>SUBSTRUCTURE
     1 TQP374      1 GROUP             4 B     TQP     0 **** TQP B 374
