@<TRIPOS>MOLECULE
4hyv_PEP_1_ligand
   14    13     1     0     0
SMALL
NO_CHARGES


@<TRIPOS>ATOM
     1 C1         -71.4840   -23.9510    50.8520 C.2          1 PEP1003   0.0000
     2 O1         -71.0740   -23.2760    51.8450 O.co2        1 PEP1003   0.0000
     3 O2'        -70.6760   -24.3310    49.9630 O.co2        1 PEP1003  -1.0000
     4 C2         -72.9680   -24.2300    50.6880 C.3          1 PEP1003   0.0000
     5 C3         -73.4460   -25.2570    49.6360 C.3          1 PEP1003   0.0000
     6 O2         -73.8090   -23.8700    51.6920 O.3          1 PEP1003   0.0000
     7 P          -74.4200   -22.2970    51.8140 P.3          1 PEP1003   0.0000
     8 O1P        -75.9120   -22.6510    52.0960 O.co2        1 PEP1003   0.0000
     9 O2P        -73.4330   -21.5280    52.5940 O.co2        1 PEP1003  -1.0000
    10 O3P        -74.4940   -21.7190    50.3510 O.co2        1 PEP1003  -1.0000
    11 H1         -73.1509   -23.4262    50.1219 H            1 PEP1003   0.0000
    12 H2         -74.4438   -25.3188    49.6599 H            1 PEP1003   0.0000
    13 H3         -73.1518   -24.9638    48.7263 H            1 PEP1003   0.0000
    14 H4         -73.0516   -26.1527    49.8413 H            1 PEP1003   0.0000
@<TRIPOS>BOND
     1    1    2      ar
     2    1    3      ar
     3    1    4       1
     4    4    5       1
     5    4    6       1
     6    6    7       1
     7    7    8      ar
     8    7    9      ar
     9    7   10      ar
    10    5   14       1
    11    4   11       1
    12    5   12       1
    13    5   13       1
@<TRIPOS>SUBSTRUCTURE
     1 PEP1003     1 GROUP             4 A     PEP     0 **** PEP A1003
