@<TRIPOS>MOLECULE
4b1j_A1R_1_ligand
   58    61     1     0     0
SMALL
NO_CHARGES


@<TRIPOS>ATOM
     1 N1          23.1950    -4.3180    -1.2490 N.ar         1 A1R1966   0.0000
     2 C2          24.0350    -5.2700    -0.8260 C.ar         1 A1R1966   0.0000
     3 N3          25.3000    -5.1420    -0.4210 N.ar         1 A1R1966   0.0000
     4 C4          25.6960    -3.8670    -0.4600 C.ar         1 A1R1966   0.0000
     5 C5          24.9440    -2.7800    -0.8690 C.ar         1 A1R1966   0.0000
     6 C6          23.6210    -3.0390    -1.2910 C.ar         1 A1R1966   0.0000
     7 N6          22.7710    -2.1070    -1.7310 N.pl3        1 A1R1966   0.0000
     8 N7          25.6850    -1.6140    -0.7810 N.2          1 A1R1966   0.0000
     9 C8          26.8290    -2.0160    -0.3060 C.2          1 A1R1966   0.0000
    10 N9          26.9140    -3.3640    -0.0980 N.pl3        1 A1R1966   0.0000
    11 C1'         28.0630    -4.1370     0.3870 C.3          1 A1R1966   0.0000
    12 C2'         29.4320    -3.6500    -0.1100 C.3          1 A1R1966   0.0000
    13 O2'         30.2510    -4.7900    -0.3840 O.3          1 A1R1966   0.0000
    14 C3'         29.9360    -2.8660     1.0910 C.3          1 A1R1966   0.0000
    15 O3'         31.3510    -2.8270     1.1480 O.3          1 A1R1966   0.0000
    16 O4'         28.0760    -4.0890     1.8020 O.3          1 A1R1966   0.0000
    17 C4'         29.3830    -3.6870     2.2560 C.3          1 A1R1966   0.0000
    18 C5'         29.2760    -2.9830     3.5930 C.3          1 A1R1966   0.0000
    19 O5'         28.6440    -1.7150     3.4130 O.3          1 A1R1966   0.0000
    20 PA          28.9310    -0.5290     4.3980 P.3          1 A1R1966   0.0000
    21 O1A         28.0590     0.6020     4.0480 O.co2        1 A1R1966   0.0000
    22 O2A         30.4070    -0.2020     4.3390 O.co2        1 A1R1966  -1.0000
    23 O3A         28.6190    -1.1950     5.8110 O.3          1 A1R1966   0.0000
    24 PB          29.4190    -1.2670     7.1970 P.3          1 A1R1966   0.0000
    25 O1B         28.5270    -1.9880     8.1810 O.co2        1 A1R1966   0.0000
    26 O2B         30.7880    -1.7960     6.9840 O.co2        1 A1R1966  -1.0000
    27 O5N         29.5390     0.2530     7.5920 O.3          1 A1R1966   0.0000
    28 C5N         28.6190     0.8370     8.5190 C.3          1 A1R1966   0.0000
    29 N4N         28.7780     2.9860     7.3040 N.4          1 A1R1966   1.0000
    30 C1N         27.5210     3.7570     7.3000 C.3          1 A1R1966   0.0000
    31 O2N         25.9760     4.4400     8.9890 O.3          1 A1R1966   0.0000
    32 C2N         26.8120     3.3820     8.5870 C.3          1 A1R1966   0.0000
    33 O3N         28.5760     4.2600    10.0160 O.3          1 A1R1966   0.0000
    34 C3N         27.9580     3.1000     9.5250 C.3          1 A1R1966   0.0000
    35 C4N         28.9130     2.3230     8.6140 C.3          1 A1R1966   0.0000
    36 H1          23.6663    -6.1994    -0.8115 H            1 A1R1966   0.0000
    37 H2          23.0570    -1.1497    -1.7740 H            1 A1R1966   0.0000
    38 H3          21.8487    -2.3666    -2.0173 H            1 A1R1966   0.0000
    39 H4          27.5834    -1.3897    -0.1096 H            1 A1R1966   0.0000
    40 H1'         27.9450    -5.0890     0.1045 H            1 A1R1966   0.0000
    41 H2'         29.3405    -3.0645    -0.9155 H            1 A1R1966   0.0000
    42 H7          31.0690    -4.7586     0.1904 H            1 A1R1966   0.0000
    43 H3'         29.5551    -1.9414     1.0963 H            1 A1R1966   0.0000
    44 H9          31.7232    -2.8685     0.2208 H            1 A1R1966   0.0000
    45 H4'         29.9483    -4.5042     2.3687 H            1 A1R1966   0.0000
    46 H5'1        30.1910    -2.8486     3.9733 H            1 A1R1966   0.0000
    47 H5'2        28.7327    -3.5403     4.2208 H            1 A1R1966   0.0000
    48 H5N1        28.7300     0.4126     9.4177 H            1 A1R1966   0.0000
    49 H5N2        27.6822     0.6979     8.1981 H            1 A1R1966   0.0000
    50 H4N1        29.5521     3.6014     7.1555 H            1 A1R1966   0.0000
    51 H1N1        26.9621     3.5102     6.5083 H            1 A1R1966   0.0000
    52 H1N2        27.7129     4.7382     7.2797 H            1 A1R1966   0.0000
    53 H2N         25.0294     4.1201     9.0291 H            1 A1R1966   0.0000
    54 H19         26.2709     2.5523     8.4497 H            1 A1R1966   0.0000
    55 H3N         28.1217     5.0659     9.6363 H            1 A1R1966   0.0000
    56 H21         27.6530     2.5221    10.2820 H            1 A1R1966   0.0000
    57 H4N         29.8485     2.4473     8.9447 H            1 A1R1966   0.0000
    58 H4N2        28.7548     2.2984     6.5783 H            1 A1R1966   0.0000
@<TRIPOS>BOND
     1    1    2      ar
     2    1    6      ar
     3    2    3      ar
     4    3    4      ar
     5    4    5      ar
     6    4   10       1
     7    5    6      ar
     8    5    8       1
     9    6    7       1
    10    8    9       2
    11    9   10       1
    12   10   11       1
    13   11   12       1
    14   11   16       1
    15   12   13       1
    16   12   14       1
    17   14   15       1
    18   14   17       1
    19   16   17       1
    20   17   18       1
    21   18   19       1
    22   19   20       1
    23   20   21      ar
    24   20   22      ar
    25   20   23       1
    26   23   24       1
    27   24   25      ar
    28   24   26      ar
    29   24   27       1
    30   27   28       1
    31   28   35       1
    32   29   30       1
    33   29   35       1
    34   30   32       1
    35   31   32       1
    36   32   34       1
    37   33   34       1
    38   34   35       1
    39    2   36       1
    40    7   37       1
    41    7   38       1
    42    9   39       1
    43   11   40       1
    44   12   41       1
    45   13   42       1
    46   14   43       1
    47   15   44       1
    48   17   45       1
    49   18   46       1
    50   18   47       1
    51   35   57       1
    52   34   56       1
    53   28   48       1
    54   28   49       1
    55   29   50       1
    56   30   51       1
    57   30   52       1
    58   31   53       1
    59   32   54       1
    60   33   55       1
    61   29   58       1
@<TRIPOS>SUBSTRUCTURE
     1 A1R1966     1 GROUP             4 A     A1R     0 **** A1R A1966
