@<TRIPOS>MOLECULE
1pu8_EA1_2_ligand
   17    19     1     0     0
SMALL
NO_CHARGES


@<TRIPOS>ATOM
     1 N7         128.1790    33.3570     3.8960 N.2          1 EA1220   0.0000
     2 C8         127.2760    32.7060     4.7070 C.2          1 EA1220   0.0000
     3 C5         129.3280    32.7100     4.0730 C.2          1 EA1220   0.0000
     4 C4         129.0620    31.6420     5.0330 C.2          1 EA1220   0.0000
     5 N3         130.0900    30.7240     5.4660 N.2          1 EA1220   0.0000
     6 N9         127.7950    31.6560     5.4220 N.pl3        1 EA1220   0.0000
     7 C6         130.6270    32.7580     3.6380 C.2          1 EA1220   0.0000
     8 N6         131.1360    33.6430     2.7720 N.2          1 EA1220   0.0000
     9 C11        132.5530    33.3020     2.6270 C.2          1 EA1220   0.0000
    10 N1         131.6010    31.8350     4.0930 N.pl3        1 EA1220   0.0000
    11 C10        132.7980    32.1000     3.5250 C.2          1 EA1220   0.0000
    12 C2         131.3470    30.8590     4.9780 C.2          1 EA1220   0.0000
    13 H1         126.3157    32.9777     4.7700 H            1 EA1220   0.0000
    14 H2         133.2256    33.7673     2.0517 H            1 EA1220   0.0000
    15 H3         133.6590    31.6111     3.6650 H            1 EA1220   0.0000
    16 H4         132.0749    30.2401     5.2732 H            1 EA1220   0.0000
    17 H5         127.3334    31.0531     6.0728 H            1 EA1220   0.0000
@<TRIPOS>BOND
     1    1    2       2
     2    1    3       1
     3    2    6       1
     4    3    4       2
     5    3    7       1
     6    4    5       1
     7    4    6       1
     8    5   12       2
     9    7    8       2
    10    7   10       1
    11    8    9       1
    12    9   11       2
    13   10   11       1
    14   10   12       1
    15   12   16       1
    16    2   13       1
    17    9   14       1
    18   11   15       1
    19    6   17       1
@<TRIPOS>SUBSTRUCTURE
     1 EA1220      1 GROUP             4 B     EA1     0 **** EA1 B 220
