@<TRIPOS>MOLECULE
1h3f_TYE_1_ligand
   24    24     1     0     0
SMALL
NO_CHARGES


@<TRIPOS>ATOM
     1 N            2.1490    50.5170    14.0020 N.4          1 TYE1433   1.0000
     2 CA           2.7320    51.4220    15.0280 C.3          1 TYE1433   0.0000
     3 C            3.4460    52.6120    14.3810 C.2          1 TYE1433   0.0000
     4 O            3.7530    53.5660    15.1420 O.2          1 TYE1433   0.0000
     5 CB           3.7120    50.6430    15.9150 C.3          1 TYE1433   0.0000
     6 CG           4.8220    49.9500    15.1570 C.ar         1 TYE1433   0.0000
     7 CD1          5.8320    50.6860    14.5290 C.ar         1 TYE1433   0.0000
     8 CD2          4.8490    48.5550    15.0390 C.ar         1 TYE1433   0.0000
     9 CE1          6.8390    50.0540    13.8010 C.ar         1 TYE1433   0.0000
    10 CE2          5.8540    47.9110    14.3100 C.ar         1 TYE1433   0.0000
    11 CZ           6.8430    48.6670    13.6920 C.ar         1 TYE1433   0.0000
    12 OH           7.8190    48.0420    12.9540 O.3          1 TYE1433   0.0000
    13 H1           1.6908    49.7518    14.4542 H            1 TYE1433   0.0000
    14 H2           1.4866    51.0226    13.4493 H            1 TYE1433   0.0000
    15 HA           1.9912    51.7700    15.6025 H            1 TYE1433   0.0000
    16 H4           3.6575    52.6301    13.4038 H            1 TYE1433   0.0000
    17 HB1          3.1959    49.9496    16.4179 H            1 TYE1433   0.0000
    18 HB2          4.1267    51.2837    16.5612 H            1 TYE1433   0.0000
    19 HD1          5.8318    51.6832    14.6035 H            1 TYE1433   0.0000
    20 HD2          4.1379    48.0101    15.4833 H            1 TYE1433   0.0000
    21 HE1          7.5549    50.5948    13.3594 H            1 TYE1433   0.0000
    22 HE2          5.8609    46.9139    14.2340 H            1 TYE1433   0.0000
    23 HH           8.5242    48.5839    12.4968 H            1 TYE1433   0.0000
    24 H12          2.8776    50.1681    13.4126 H            1 TYE1433   0.0000
@<TRIPOS>BOND
     1    1    2       1
     2    2    3       1
     3    2    5       1
     4    3    4       2
     5    5    6       1
     6    6    7      ar
     7    6    8      ar
     8    7    9      ar
     9    8   10      ar
    10    9   11      ar
    11   10   11      ar
    12   11   12       1
    13    1   13       1
    14    1   14       1
    15    2   15       1
    16    3   16       1
    17    5   17       1
    18    5   18       1
    19    7   19       1
    20    8   20       1
    21    9   21       1
    22   10   22       1
    23   12   23       1
    24    1   24       1
@<TRIPOS>SUBSTRUCTURE
     1 TYE1433     1 GROUP             4 A     TYE     0 **** TYE A1433
