@<TRIPOS>MOLECULE
3l6j_Z90_2_ligand
   80    83     1     0     0
SMALL
NO_CHARGES


@<TRIPOS>ATOM
     1 OAA         -5.0630    34.1680    77.5600 O.co2        1 Z90190   0.0000
     2 OAB         -8.7030    31.1830    74.8910 O.co2        1 Z90190   0.0000
     3 OAC         -3.5890    33.6880    79.1370 O.co2        1 Z90190  -1.0000
     4 OAD        -10.5190    32.2860    74.2430 O.co2        1 Z90190  -1.0000
     5 CAE        -16.2690    29.3860    75.5020 C.ar         1 Z90190   0.0000
     6 CAF        -17.2250    30.2500    76.0360 C.ar         1 Z90190   0.0000
     7 CAG        -15.0560    29.1820    76.1590 C.ar         1 Z90190   0.0000
     8 CAH         -8.6990    34.0940    86.8890 C.ar         1 Z90190   0.0000
     9 CAI         -9.9170    34.1380    87.5640 C.ar         1 Z90190   0.0000
    10 CAJ        -16.9520    30.9110    77.2340 C.ar         1 Z90190   0.0000
    11 CAK        -14.7900    29.8470    77.3550 C.ar         1 Z90190   0.0000
    12 CAL         -8.6570    33.7890    85.5280 C.ar         1 Z90190   0.0000
    13 CAM        -11.1000    33.8840    86.8700 C.ar         1 Z90190   0.0000
    14 CAN        -15.6600    31.5210    82.7460 C.ar         1 Z90190   0.0000
    15 CAO        -13.6690    30.7500    81.5980 C.ar         1 Z90190   0.0000
    16 CAP        -14.8810    31.8700    83.8510 C.ar         1 Z90190   0.0000
    17 CAQ        -12.8950    31.0940    82.7000 C.ar         1 Z90190   0.0000
    18 CAR        -11.2220    33.5430    78.2410 C.ar         1 Z90190   0.0000
    19 CAS         -9.3670    32.1450    78.9140 C.ar         1 Z90190   0.0000
    20 CAT        -10.9990    33.1930    76.9050 C.ar         1 Z90190   0.0000
    21 CAU         -9.1490    31.7940    77.5840 C.ar         1 Z90190   0.0000
    22 CAV         -6.6660    35.5330    79.3220 C.3          1 Z90190   0.0000
    23 CAW         -7.5100    35.2580    80.5590 C.3          1 Z90190   0.0000
    24 CAX         -5.1910    35.3380    79.6290 C.3          1 Z90190   0.0000
    25 CAY        -15.4450    31.4300    79.2010 C.3          1 Z90190   0.0000
    26 CAZ        -15.8760    30.5820    80.4020 C.3          1 Z90190   0.0000
    27 CBA         -9.7110    33.2070    83.3250 C.3          1 Z90190   0.0000
    28 CBB         -9.0040    35.2920    80.2100 C.3          1 Z90190   0.0000
    29 CBC         -9.0630    34.3070    82.4790 C.3          1 Z90190   0.0000
    30 CBD        -12.7160    31.9990    84.8970 C.3          1 Z90190   0.0000
    31 CBE        -10.6330    33.4020    80.7050 C.3          1 Z90190   0.0000
    32 OBF        -12.2080    33.3450    84.8350 O.3          1 Z90190   0.0000
    33 CBG         -4.5610    34.3170    78.6920 C.2          1 Z90190   0.0000
    34 CBH         -9.7030    31.9070    75.1200 C.2          1 Z90190   0.0000
    35 CBI        -15.7400    30.7080    77.8930 C.ar         1 Z90190   0.0000
    36 CBJ        -15.0470    30.9620    81.6220 C.ar         1 Z90190   0.0000
    37 CBK        -13.5030    31.6440    83.8240 C.ar         1 Z90190   0.0000
    38 CBL        -10.3980    33.0270    79.2420 C.ar         1 Z90190   0.0000
    39 CBM         -9.9590    32.3170    76.5760 C.ar         1 Z90190   0.0000
    40 CBN         -9.8310    33.5420    84.8190 C.ar         1 Z90190   0.0000
    41 CBO        -11.0490    33.5760    85.5070 C.ar         1 Z90190   0.0000
    42 NBP         -9.7710    34.5100    81.1940 N.4          1 Z90190   1.0000
    43 HAE        -16.4547    28.9098    74.6425 H            1 Z90190   0.0000
    44 HAF        -18.0957    30.3940    75.5658 H            1 Z90190   0.0000
    45 HAG        -14.3767    28.5584    75.7721 H            1 Z90190   0.0000
    46 HAH         -7.8500    34.2821    87.3827 H            1 Z90190   0.0000
    47 HAI         -9.9430    34.3505    88.5408 H            1 Z90190   0.0000
    48 HAJ        -17.6302    31.5346    77.6227 H            1 Z90190   0.0000
    49 HAK        -13.9186    29.7052    77.8246 H            1 Z90190   0.0000
    50 HAL         -7.7759    33.7473    85.0569 H            1 Z90190   0.0000
    51 HAM        -11.9795    33.9220    87.3445 H            1 Z90190   0.0000
    52 HAN        -16.6488    31.6700    82.7591 H            1 Z90190   0.0000
    53 HAO        -13.2381    30.3508    80.7887 H            1 Z90190   0.0000
    54 HAP        -15.3075    32.2796    84.6574 H            1 Z90190   0.0000
    55 HAQ        -11.9060    30.9469    82.6850 H            1 Z90190   0.0000
    56 HAR        -11.9707    34.1620    78.4783 H            1 Z90190   0.0000
    57 HAS         -8.7854    31.7654    79.6335 H            1 Z90190   0.0000
    58 HAT        -11.5828    33.5689    76.1854 H            1 Z90190   0.0000
    59 HAU         -8.4083    31.1641    77.3506 H            1 Z90190   0.0000
    60 HAV1        -6.8180    36.4750    79.0229 H            1 Z90190   0.0000
    61 HAV2        -6.9362    34.9041    78.5930 H            1 Z90190   0.0000
    62 HAW1        -7.3177    35.9548    81.2500 H            1 Z90190   0.0000
    63 HAW2        -7.2775    34.3557    80.9219 H            1 Z90190   0.0000
    64 HAX1        -5.0940    35.0184    80.5716 H            1 Z90190   0.0000
    65 HAX2        -4.7179    36.2126    79.5232 H            1 Z90190   0.0000
    66 HAY1       -14.4631    31.6091    79.2620 H            1 Z90190   0.0000
    67 HAY2       -15.9435    32.2968    79.2163 H            1 Z90190   0.0000
    68 HAZ1       -15.7358    29.6142    80.1931 H            1 Z90190   0.0000
    69 HAZ2       -16.8438    30.7448    80.5938 H            1 Z90190   0.0000
    70 HBA1        -9.1602    32.3773    83.2339 H            1 Z90190   0.0000
    71 HBA2       -10.6296    33.0382    82.9677 H            1 Z90190   0.0000
    72 HBB1        -9.1399    34.9021    79.2992 H            1 Z90190   0.0000
    73 HBB2        -9.3242    36.2393    80.2183 H            1 Z90190   0.0000
    74 HBC1        -8.1153    34.0512    82.2883 H            1 Z90190   0.0000
    75 HBC2        -9.0797    35.1632    82.9954 H            1 Z90190   0.0000
    76 HBD1       -13.2614    31.9075    85.7302 H            1 Z90190   0.0000
    77 HBD2       -11.9384    31.3716    84.9370 H            1 Z90190   0.0000
    78 HBE1       -10.4564    32.5948    81.2683 H            1 Z90190   0.0000
    79 HBE2       -11.5885    33.6783    80.8087 H            1 Z90190   0.0000
    80 HBP        -10.4629    35.1789    81.4657 H            1 Z90190   0.0000
@<TRIPOS>BOND
     1    1   33      ar
     2    2   34      ar
     3    3   33      ar
     4    4   34      ar
     5    5    6      ar
     6    5    7      ar
     7    6   10      ar
     8    7   11      ar
     9    8    9      ar
    10    8   12      ar
    11    9   13      ar
    12   10   35      ar
    13   11   35      ar
    14   12   40      ar
    15   13   41      ar
    16   14   16      ar
    17   14   36      ar
    18   15   17      ar
    19   15   36      ar
    20   16   37      ar
    21   17   37      ar
    22   18   20      ar
    23   18   38      ar
    24   19   21      ar
    25   19   38      ar
    26   20   39      ar
    27   21   39      ar
    28   22   23       1
    29   22   24       1
    30   23   28       1
    31   24   33       1
    32   25   26       1
    33   25   35       1
    34   26   36       1
    35   27   29       1
    36   27   40       1
    37   28   42       1
    38   29   42       1
    39   30   32       1
    40   30   37       1
    41   31   38       1
    42   31   42       1
    43   32   41       1
    44   34   39       1
    45   40   41      ar
    46   31   79       1
    47   31   78       1
    48    5   43       1
    49    6   44       1
    50    7   45       1
    51    8   46       1
    52    9   47       1
    53   10   48       1
    54   11   49       1
    55   12   50       1
    56   13   51       1
    57   14   52       1
    58   15   53       1
    59   16   54       1
    60   17   55       1
    61   18   56       1
    62   19   57       1
    63   20   58       1
    64   21   59       1
    65   22   60       1
    66   22   61       1
    67   23   62       1
    68   23   63       1
    69   24   64       1
    70   24   65       1
    71   25   66       1
    72   25   67       1
    73   26   68       1
    74   26   69       1
    75   27   70       1
    76   27   71       1
    77   28   72       1
    78   28   73       1
    79   29   74       1
    80   29   75       1
    81   30   76       1
    82   30   77       1
    83   42   80       1
@<TRIPOS>SUBSTRUCTURE
     1 Z90190      1 GROUP             4 B     Z90     0 **** Z90 B 190
