@<TRIPOS>MOLECULE
2hsd_NAD_3_ligand
   70    74     1     0     0
SMALL
NO_CHARGES


@<TRIPOS>ATOM
     1 PA          62.1720    14.5050    65.3450 P.3          1 NAD256   0.0000
     2 O1A         63.1800    14.4790    66.4420 O.co2        1 NAD256   0.0000
     3 O2A         61.4750    15.7870    65.0580 O.co2        1 NAD256  -1.0000
     4 O5B         61.1380    13.2820    65.6720 O.3          1 NAD256   0.0000
     5 C5B         59.9110    12.9900    64.9810 C.3          1 NAD256   0.0000
     6 C4B         58.7090    13.1520    65.9170 C.3          1 NAD256   0.0000
     7 O4B         58.7330    12.4350    67.1780 O.3          1 NAD256   0.0000
     8 C3B         58.4080    14.6040    66.2500 C.3          1 NAD256   0.0000
     9 O3B         57.1150    14.9320    65.7800 O.3          1 NAD256   0.0000
    10 C2B         58.3270    14.6380    67.7610 C.3          1 NAD256   0.0000
    11 O2B         57.4810    15.7190    68.1920 O.3          1 NAD256   0.0000
    12 C1B         57.8500    13.2050    68.0280 C.3          1 NAD256   0.0000
    13 N9A         57.7440    12.7920    69.4760 N.pl3        1 NAD256   0.0000
    14 C8A         58.5780    13.1160    70.5000 C.2          1 NAD256   0.0000
    15 N7A         58.1740    12.5890    71.6700 N.2          1 NAD256   0.0000
    16 C5A         57.0730    11.9260    71.3250 C.ar         1 NAD256   0.0000
    17 C6A         56.2990    11.1930    72.2100 C.ar         1 NAD256   0.0000
    18 N6A         56.6530    11.0640    73.5040 N.pl3        1 NAD256   0.0000
    19 N1A         55.2130    10.5960    71.6460 N.ar         1 NAD256   0.0000
    20 C2A         54.9030    10.6820    70.3440 C.ar         1 NAD256   0.0000
    21 N3A         55.6750    11.3900    69.5200 N.ar         1 NAD256   0.0000
    22 C4A         56.7700    12.0270    69.9830 C.ar         1 NAD256   0.0000
    23 O3          62.8360    14.1050    63.9350 O.3          1 NAD256   0.0000
    24 PN          63.3260    12.7800    63.1710 P.3          1 NAD256   0.0000
    25 O1N         64.8020    12.8550    62.9880 O.co2        1 NAD256   0.0000
    26 O2N         62.4500    12.6870    61.9690 O.co2        1 NAD256  -1.0000
    27 O5D         62.9310    11.5900    64.1870 O.3          1 NAD256   0.0000
    28 C5D         63.7760    11.1190    65.2460 C.3          1 NAD256   0.0000
    29 C4D         63.5600     9.6310    65.0820 C.3          1 NAD256   0.0000
    30 O4D         64.1150     9.1840    63.8170 O.3          1 NAD256   0.0000
    31 C3D         64.1580     8.7620    66.1650 C.3          1 NAD256   0.0000
    32 O3D         63.2420     7.7130    66.4690 O.3          1 NAD256   0.0000
    33 C2D         65.4130     8.1880    65.5280 C.3          1 NAD256   0.0000
    34 O2D         65.5300     6.7770    65.5940 O.3          1 NAD256   0.0000
    35 C1D         65.3780     8.5000    64.0580 C.3          1 NAD256   0.0000
    36 N1N         66.7200     9.0590    63.7250 N.ar         1 NAD256   1.0000
    37 C2N         67.0920    10.3450    64.1820 C.ar         1 NAD256   0.0000
    38 C3N         68.3630    10.8660    63.9150 C.ar         1 NAD256   0.0000
    39 C7N         68.6890    12.2660    64.4550 C.2          1 NAD256   0.0000
    40 O7N         69.8421    12.5602    64.7647 O.2          1 NAD256   0.0000
    41 N7N         67.6634    13.1014    64.5770 N.am         1 NAD256   0.0000
    42 C4N         69.2730    10.0980    63.1660 C.ar         1 NAD256   0.0000
    43 C5N         68.9160     8.8250    62.7010 C.ar         1 NAD256   0.0000
    44 C6N         67.6490     8.2970    62.9800 C.ar         1 NAD256   0.0000
    45 H5B1        59.9401    12.0488    64.6443 H            1 NAD256   0.0000
    46 H5B2        59.8122    13.6174    64.2086 H            1 NAD256   0.0000
    47 H4B         57.9149    12.8093    65.4150 H            1 NAD256   0.0000
    48 H3B         59.1070    15.2251    65.8956 H            1 NAD256   0.0000
    49 H5          56.4401    14.3403    66.2208 H            1 NAD256   0.0000
    50 H2B         59.2438    14.7603    68.1412 H            1 NAD256   0.0000
    51 H7          56.5376    15.3954    68.2647 H            1 NAD256   0.0000
    52 H1B         56.9327    13.1280    67.6374 H            1 NAD256   0.0000
    53 H8A         59.3967    13.6806    70.3955 H            1 NAD256   0.0000
    54 H6A1        56.0816    10.5309    74.1279 H            1 NAD256   0.0000
    55 H6A2        57.4871    11.5014    73.8402 H            1 NAD256   0.0000
    56 H2A         54.0923    10.2147    69.9913 H            1 NAD256   0.0000
    57 H5D1        63.4717    11.4451    66.1410 H            1 NAD256   0.0000
    58 H5D2        64.7319    11.3764    65.1048 H            1 NAD256   0.0000
    59 H4D         62.5743     9.4634    65.0621 H            1 NAD256   0.0000
    60 H3D         64.3780     9.2984    66.9798 H            1 NAD256   0.0000
    61 H17         63.0769     7.1663    65.6481 H            1 NAD256   0.0000
    62 H2D         66.2203     8.6101    65.9403 H            1 NAD256   0.0000
    63 H19         66.3808     6.4921    65.1525 H            1 NAD256   0.0000
    64 H1D         65.3154     7.6206    63.5860 H            1 NAD256   0.0000
    65 H2N         66.4363    10.8904    64.7041 H            1 NAD256   0.0000
    66 H7N1        67.8068    14.0181    64.9498 H            1 NAD256   0.0000
    67 H7N2        66.7479    12.8135    64.2960 H            1 NAD256   0.0000
    68 H4N         70.1817    10.4632    62.9638 H            1 NAD256   0.0000
    69 H5N         69.5702     8.2900    62.1664 H            1 NAD256   0.0000
    70 H6N         67.4025     7.3845    62.6535 H            1 NAD256   0.0000
@<TRIPOS>BOND
     1    1    2      ar
     2    1    3      ar
     3    1    4       1
     4    1   23       1
     5    4    5       1
     6    5    6       1
     7    6    7       1
     8    6    8       1
     9    7   12       1
    10    8    9       1
    11    8   10       1
    12   10   11       1
    13   10   12       1
    14   12   13       1
    15   13   14       1
    16   13   22       1
    17   14   15       2
    18   15   16       1
    19   16   17      ar
    20   16   22      ar
    21   17   18       1
    22   17   19      ar
    23   19   20      ar
    24   20   21      ar
    25   21   22      ar
    26   23   24       1
    27   24   25      ar
    28   24   26      ar
    29   24   27       1
    30   27   28       1
    31   28   29       1
    32   29   30       1
    33   29   31       1
    34   30   35       1
    35   31   32       1
    36   31   33       1
    37   33   34       1
    38   33   35       1
    39   35   36       1
    40   36   37      ar
    41   36   44      ar
    42   37   38      ar
    43   38   39       1
    44   38   42      ar
    45   39   40       2
    46   39   41      am
    47   42   43      ar
    48   43   44      ar
    49   44   70       1
    50    5   45       1
    51    5   46       1
    52    6   47       1
    53    8   48       1
    54    9   49       1
    55   10   50       1
    56   11   51       1
    57   12   52       1
    58   14   53       1
    59   18   54       1
    60   18   55       1
    61   20   56       1
    62   43   69       1
    63   28   57       1
    64   28   58       1
    65   29   59       1
    66   31   60       1
    67   32   61       1
    68   33   62       1
    69   34   63       1
    70   35   64       1
    71   37   65       1
    72   41   66       1
    73   41   67       1
    74   42   68       1
@<TRIPOS>SUBSTRUCTURE
     1 NAD256      1 GROUP             4 C     NAD     0 **** NAD C 256
