@<TRIPOS>MOLECULE
./coach420/3lbz/ligand.pdb
 77 77 0 0 0
SMALL
GASTEIGER

@<TRIPOS>ATOM
      1  CAA      -12.9430  -15.8910   -2.4080 C.3   200  Z88200      0.0982
      2  OAB      -11.7920  -14.0180   -3.3140 O.2   200  Z88200     -0.2716
      3  OAC      -12.6820  -13.1960    1.0640 O.2   200  Z88200     -0.1482
      4  OAD      -12.9170  -15.4740    0.6420 O.2   200  Z88200     -0.1482
      5 BRAE      -19.4250  -12.9360    0.3930 Br    200  Z88200     -0.0490
      6  CAF      -17.0600  -14.6880    0.7790 C.ar  200  Z88200      0.0081
      7  CAG      -16.6590  -12.4690   -0.1490 C.ar  200  Z88200      0.0081
      8  CAH      -15.6850  -14.9280    0.7160 C.ar  200  Z88200      0.0208
      9  CAI      -15.2950  -12.6970   -0.2050 C.ar  200  Z88200      0.0208
     10  NAJ      -12.5480  -13.8040   -1.1970 N.am  200  Z88200     -0.0591
     11  CAK      -12.3830  -14.4990   -2.3450 C.2   200  Z88200      0.2631
     12  CAL      -17.5550  -13.4360    0.3380 C.ar  200  Z88200      0.0346
     13  CAM      -14.8060  -13.9380    0.2180 C.ar  200  Z88200      0.1272
     14  SAN      -13.2100  -14.1560    0.1580 S.O2  200  Z88200      0.0954
     15  N         -5.4560    5.2670   18.8240 N.am  201  Z89201     -0.2435
     16  O         -6.4920    6.0600   20.9680 O.3   201  Z89201      0.0000
     17  CA        -4.8740    6.5840   19.2700 C.3   201  Z89201      0.1113
     18  CB        -3.4770    6.5540   19.9250 C.3   201  Z89201      0.1359
     19  CG        -2.9580    7.9740   20.1740 C.2   201  Z89201      0.3666
     20  CAA       -4.1380   -0.2320   18.9500 C.ar  201  Z89201      0.0738
     21  CAB       -4.1090    1.1540   19.0870 C.ar  201  Z89201      0.0209
     22  CAC       -2.9920    1.8170   19.6220 C.ar  201  Z89201      0.0082
     23  CAD       -1.8710    1.0990   20.0470 C.ar  201  Z89201      0.0347
     24 BRAE       -0.3140    1.9250   20.8020 Br    201  Z89201     -0.0490
     25  CAF       -1.9140   -0.2780   19.9040 C.ar  201  Z89201      0.0080
     26  CAG       -3.0250   -0.9210   19.3760 C.ar  201  Z89201      0.0171
     27  CAH       -5.3240    1.5950   18.5780 C.2   201  Z89201      0.0671
     28  CAI       -6.0160    0.4740   18.1640 C.2   201  Z89201      0.2697
     29  NAJ       -5.3120   -0.6460   18.3940 N.am  201  Z89201     -0.1754
     30  OAK       -7.1820    0.4550   17.6350 O.2   201  Z89201     -0.2680
     31  CAL       -5.7460    2.9440   18.5110 C.2   201  Z89201      0.0894
     32  CAM       -4.9350    4.0280   18.9710 C.2   201  Z89201      0.2597
     33  CAW       -6.7000    5.0920   18.2730 C.2   201  Z89201      0.1212
     34  SAX       -7.6560    6.5660   17.9670 S.2   201  Z89201     -0.0272
     35  SAY       -7.2990    3.4720   17.8520 S.3   201  Z89201     -0.0602
     36  OAZ       -3.7360    3.9040   19.4760 O.2   201  Z89201     -0.2690
     37  OD1       -2.7970    8.4080   21.3470 O.co2 201  Z89201     -0.2456
     38  OD2       -2.7190    8.7030   19.1830 O.co2 201  Z89201     -0.2456
     39  OXT       -6.0800    8.2020   20.6580 O.3   201  Z89201      0.0000
     40  N          5.9100  -26.7570   18.9950 N.am  202  Z89202     -0.2209
     41  O          6.7920  -27.7360   21.2190 O.3   202  Z89202      0.0000
     42  CA         5.3490  -28.1280   19.3340 C.2   202  Z89202      0.0801
     43  CB         3.8710  -28.1660   19.8060 C.2   202  Z89202      0.1026
     44  CG         3.3640  -29.5460   20.2690 C.2   202  Z89202      0.3893
     45  CAA        4.5820  -21.3010   19.0770 C.ar  202  Z89202      0.0738
     46  CAB        4.5500  -22.6880   19.1840 C.ar  202  Z89202      0.0209
     47  CAC        3.4320  -23.4010   19.6200 C.ar  202  Z89202      0.0082
     48  CAD        2.2930  -22.7130   19.9700 C.ar  202  Z89202      0.0347
     49 BRAE        0.7420  -23.6080   20.5810 Br    202  Z89202     -0.0490
     50  CAF        2.3040  -21.3400   19.8720 C.ar  202  Z89202      0.0080
     51  CAG        3.4300  -20.6430   19.4420 C.ar  202  Z89202      0.0171
     52  CAH        5.7820  -23.0970   18.7680 C.2   202  Z89202      0.0671
     53  CAI        6.5080  -21.9640   18.4360 C.2   202  Z89202      0.2697
     54  NAJ        5.7940  -20.8620   18.6160 N.am  202  Z89202     -0.1754
     55  OAK        7.6990  -21.8810   18.0090 O.2   202  Z89202     -0.2680
     56  CAL        6.1550  -24.4310   18.7440 C.2   202  Z89202      0.0897
     57  CAM        5.3490  -25.5360   19.1190 C.2   202  Z89202      0.2635
     58  CAW        7.1690  -26.4960   18.5350 C.2   202  Z89202      0.1251
     59  SAX        8.2850  -27.8220   18.2200 S.2   202  Z89202     -0.0269
     60  SAY        7.7410  -24.8670   18.2100 S.3   202  Z89202     -0.0599
     61  OAZ        4.1260  -25.4580   19.5360 O.2   202  Z89202     -0.2687
     62  OD1        2.9580  -29.7100   21.4640 O.co2 202  Z89202     -0.2405
     63  OD2        3.3520  -30.5100   19.4490 O.co2 202  Z89202     -0.2405
     64  OXT        6.4950  -29.8460   20.6100 O.3   202  Z89202      0.0000
     65  OAB      -11.9190   -8.1450    3.4730 O.2   200  Z88200     -0.2615
     66  OAC      -12.6970   -8.5910   -0.7990 O.2   200  Z88200     -0.1482
     67  OAD      -12.8640   -6.2970   -0.2590 O.2   200  Z88200     -0.1482
     68 BRAE      -19.3930   -8.6360   -0.1990 Br    200  Z88200     -0.0490
     69  CAF      -16.9810   -7.0810   -0.7660 C.ar  200  Z88200      0.0081
     70  CAG      -16.7290   -9.1150    0.5720 C.ar  200  Z88200      0.0081
     71  CAH      -15.6110   -6.8870   -0.6620 C.ar  200  Z88200      0.0208
     72  CAI      -15.3720   -8.9210    0.6510 C.ar  200  Z88200      0.0208
     73  NAJ      -12.5790   -8.1580    1.4100 N.am  200  Z88200     -0.0508
     74  CAK      -12.5070   -7.5630    2.5880 C.2   200  Z88200      0.3425
     75  CAL      -17.5310   -8.2170   -0.1310 C.ar  200  Z88200      0.0346
     76  CAM      -14.8230   -7.8060    0.0490 C.ar  200  Z88200      0.1272
     77  SAN      -13.2330   -7.6430    0.1310 S.O2  200  Z88200      0.0957
@<TRIPOS>BOND
     1     1    11    1
     2     2    11    2
     3     3    14    2
     4     4    14    2
     5     5    12    1
     6     6    12   ar
     7     6     8   ar
     8     7     9   ar
     9     7    12   ar
    10     8    13   ar
    11     9    13   ar
    12    10    11   am
    13    10    14    1
    14    13    14    1
    15    15    33    1
    16    15    32   am
    17    15    17    1
    18    17    18    1
    19    18    19    1
    20    19    38   ar
    21    19    37   ar
    22    20    29    1
    23    20    21   ar
    24    20    26   ar
    25    21    27    1
    26    21    22   ar
    27    22    23   ar
    28    23    25   ar
    29    23    24    1
    30    25    26   ar
    31    27    28    1
    32    27    31    2
    33    28    30    2
    34    28    29   am
    35    31    35    1
    36    31    32    1
    37    32    36    2
    38    33    35    1
    39    33    34    2
    40    40    58    1
    41    40    57   am
    42    40    42    1
    43    42    43    2
    44    43    44    1
    45    44    63   ar
    46    44    62   ar
    47    45    54    1
    48    45    46   ar
    49    45    51   ar
    50    46    52    1
    51    46    47   ar
    52    47    48   ar
    53    48    50   ar
    54    48    49    1
    55    50    51   ar
    56    52    53    1
    57    52    56    2
    58    53    55    2
    59    53    54   am
    60    56    60    1
    61    56    57    1
    62    57    61    2
    63    58    60    1
    64    58    59    2
    65    65    74    2
    66    66    77    2
    67    67    77    2
    68    68    75    1
    69    69    71   ar
    70    69    75   ar
    71    70    75   ar
    72    70    72   ar
    73    71    76   ar
    74    72    76   ar
    75    73    77    1
    76    73    74   am
    77    76    77    1
