@<TRIPOS>MOLECULE
4na4_A1R_1_ligand
   58    61     1     0     0
SMALL
NO_CHARGES


@<TRIPOS>ATOM
     1 N1          53.9550    31.8320    24.0770 N.ar         1 A1R1001   0.0000
     2 C2          52.7190    32.1630    23.6700 C.ar         1 A1R1001   0.0000
     3 N3          52.3280    33.4450    23.6450 N.ar         1 A1R1001   0.0000
     4 C4          53.1710    34.4320    24.0430 C.ar         1 A1R1001   0.0000
     5 C5          54.4380    34.1150    24.4740 C.ar         1 A1R1001   0.0000
     6 C6          54.8250    32.7800    24.4880 C.ar         1 A1R1001   0.0000
     7 N6          56.0570    32.4050    24.9020 N.pl3        1 A1R1001   0.0000
     8 N7          55.0420    35.2690    24.7960 N.2          1 A1R1001   0.0000
     9 C8          54.1590    36.2710    24.5620 C.2          1 A1R1001   0.0000
    10 N9          53.0200    35.7550    24.1120 N.pl3        1 A1R1001   0.0000
    11 C1'         51.7720    36.4790    23.7250 C.3          1 A1R1001   0.0000
    12 C2'         51.4610    37.6800    24.6030 C.3          1 A1R1001   0.0000
    13 O2'         50.0560    37.6470    24.8570 O.3          1 A1R1001   0.0000
    14 C3'         51.8080    38.8970    23.7700 C.3          1 A1R1001   0.0000
    15 O3'         50.9870    40.0310    24.0530 O.3          1 A1R1001   0.0000
    16 O4'         51.8600    36.9970    22.3870 O.3          1 A1R1001   0.0000
    17 C4'         51.5360    38.3910    22.3640 C.3          1 A1R1001   0.0000
    18 C5'         52.3060    39.1110    21.2750 C.3          1 A1R1001   0.0000
    19 O5'         53.6580    39.3030    21.6610 O.3          1 A1R1001   0.0000
    20 PA          54.5080    40.4680    20.9680 P.3          1 A1R1001   0.0000
    21 O1A         55.9180    40.0630    21.2710 O.co2        1 A1R1001   0.0000
    22 O2A         53.9680    41.8250    21.3420 O.co2        1 A1R1001  -1.0000
    23 O3A         54.1490    40.1900    19.4150 O.3          1 A1R1001   0.0000
    24 PB          53.8400    41.3110    18.3000 P.3          1 A1R1001   0.0000
    25 O1B         52.6540    42.1740    18.6690 O.co2        1 A1R1001   0.0000
    26 O2B         53.8470    40.5950    16.9860 O.co2        1 A1R1001  -1.0000
    27 O5N         55.1210    42.2660    18.3690 O.3          1 A1R1001   0.0000
    28 C5N         56.0360    42.3070    17.2840 C.3          1 A1R1001   0.0000
    29 N4N         57.6710    42.7300    19.0390 N.4          1 A1R1001   1.0000
    30 C1N         58.9950    42.1730    19.1120 C.3          1 A1R1001   0.0000
    31 O2N         60.7530    42.3470    17.4230 O.3          1 A1R1001   0.0000
    32 C2N         59.3840    42.0060    17.6470 C.3          1 A1R1001   0.0000
    33 O3N         59.0690    44.1190    16.4770 O.3          1 A1R1001   0.0000
    34 C3N         58.4460    42.8810    16.8320 C.3          1 A1R1001   0.0000
    35 C4N         57.2390    43.1230    17.7170 C.3          1 A1R1001   0.0000
    36 H1          52.0838    31.4460    23.3827 H            1 A1R1001   0.0000
    37 H2          56.7127    33.0947    25.2093 H            1 A1R1001   0.0000
    38 H3          56.3121    31.4381    24.9007 H            1 A1R1001   0.0000
    39 H4          54.3368    37.2446    24.7054 H            1 A1R1001   0.0000
    40 H1'         51.0037    35.8406    23.7715 H            1 A1R1001   0.0000
    41 H2'         51.9868    37.6571    25.4533 H            1 A1R1001   0.0000
    42 H7          49.7176    38.5799    24.9804 H            1 A1R1001   0.0000
    43 H3'         52.7746    39.1298    23.8769 H            1 A1R1001   0.0000
    44 H9          51.2652    40.7969    23.4734 H            1 A1R1001   0.0000
    45 H4'         50.5583    38.4861    22.1766 H            1 A1R1001   0.0000
    46 H5'1        51.8827    40.0013    21.1073 H            1 A1R1001   0.0000
    47 H5'2        52.2779    38.5655    20.4374 H            1 A1R1001   0.0000
    48 H5N1        55.6030    42.7352    16.4908 H            1 A1R1001   0.0000
    49 H5N2        56.3229    41.3789    17.0466 H            1 A1R1001   0.0000
    50 H4N1        57.6431    43.5388    19.6264 H            1 A1R1001   0.0000
    51 H1N1        58.9876    41.2913    19.5838 H            1 A1R1001   0.0000
    52 H1N2        59.6210    42.7965    19.5804 H            1 A1R1001   0.0000
    53 H2N         61.2390    41.5527    17.0585 H            1 A1R1001   0.0000
    54 H19         59.2432    41.0516    17.3838 H            1 A1R1001   0.0000
    55 H3N         59.9982    44.1423    16.8458 H            1 A1R1001   0.0000
    56 H21         58.1654    42.3951    16.0043 H            1 A1R1001   0.0000
    57 H4N         57.0066    44.0956    17.7128 H            1 A1R1001   0.0000
    58 H4N2        57.0284    42.0456    19.3834 H            1 A1R1001   0.0000
@<TRIPOS>BOND
     1    1    2      ar
     2    1    6      ar
     3    2    3      ar
     4    3    4      ar
     5    4    5      ar
     6    4   10       1
     7    5    6      ar
     8    5    8       1
     9    6    7       1
    10    8    9       2
    11    9   10       1
    12   10   11       1
    13   11   12       1
    14   11   16       1
    15   12   13       1
    16   12   14       1
    17   14   15       1
    18   14   17       1
    19   16   17       1
    20   17   18       1
    21   18   19       1
    22   19   20       1
    23   20   21      ar
    24   20   22      ar
    25   20   23       1
    26   23   24       1
    27   24   25      ar
    28   24   26      ar
    29   24   27       1
    30   27   28       1
    31   28   35       1
    32   29   30       1
    33   29   35       1
    34   30   32       1
    35   31   32       1
    36   32   34       1
    37   33   34       1
    38   34   35       1
    39    2   36       1
    40    7   37       1
    41    7   38       1
    42    9   39       1
    43   11   40       1
    44   12   41       1
    45   13   42       1
    46   14   43       1
    47   15   44       1
    48   17   45       1
    49   18   46       1
    50   18   47       1
    51   35   57       1
    52   34   56       1
    53   28   48       1
    54   28   49       1
    55   29   50       1
    56   30   51       1
    57   30   52       1
    58   31   53       1
    59   32   54       1
    60   33   55       1
    61   29   58       1
@<TRIPOS>SUBSTRUCTURE
     1 A1R1001     1 GROUP             4 A     A1R     0 **** A1R A1001
