@<TRIPOS>MOLECULE
2bjh_FER_1_ligand
   23    23     1     0     0
SMALL
NO_CHARGES


@<TRIPOS>ATOM
     1 C4           9.2340    -2.1490    22.1990 C.ar         1 FER908   0.0000
     2 C5           9.3650    -1.1650    23.2070 C.ar         1 FER908   0.0000
     3 C6          10.4040    -0.2020    23.1300 C.ar         1 FER908   0.0000
     4 C3          10.1370    -2.1730    21.1110 C.ar         1 FER908   0.0000
     5 C2          11.1900    -1.1970    21.0300 C.ar         1 FER908   0.0000
     6 C1          11.3310    -0.2100    22.0330 C.ar         1 FER908   0.0000
     7 C10         10.7270    -3.3370    19.0370 C.3          1 FER908   0.0000
     8 C7          12.4500     0.7650    21.8790 C.2          1 FER908   0.0000
     9 C8          12.7390     1.7770    22.7470 C.2          1 FER908   0.0000
    10 C9          13.8790     2.7350    22.5520 C.2          1 FER908   0.0000
    11 O1          14.6430     2.6700    21.5710 O.co2        1 FER908   0.0000
    12 O2          14.0080     3.6020    23.4440 O.co2        1 FER908  -1.0000
    13 O4           8.2260    -3.1040    22.2510 O.3          1 FER908   0.0000
    14 O3           9.8920    -3.1940    20.1900 O.3          1 FER908   0.0000
    15 H1           8.7245    -1.1482    23.9747 H            1 FER908   0.0000
    16 H2          10.4918     0.4895    23.8470 H            1 FER908   0.0000
    17 H3          11.8268    -1.2163    20.2593 H            1 FER908   0.0000
    18 H4          10.4108    -4.1126    18.4906 H            1 FER908   0.0000
    19 H5          10.6829    -2.5024    18.4879 H            1 FER908   0.0000
    20 H6          11.6708    -3.4960    19.3266 H            1 FER908   0.0000
    21 H7          13.0356     0.6688    21.0742 H            1 FER908   0.0000
    22 H8          12.1612     1.8867    23.5558 H            1 FER908   0.0000
    23 H9           7.5761    -3.1041    23.0110 H            1 FER908   0.0000
@<TRIPOS>BOND
     1    1    2      ar
     2    1    4      ar
     3    1   13       1
     4    2    3      ar
     5    3    6      ar
     6    4    5      ar
     7    4   14       1
     8    5    6      ar
     9    6    8       1
    10    7   14       1
    11    8    9       2
    12    9   10       1
    13   10   11      ar
    14   10   12      ar
    15    2   15       1
    16    3   16       1
    17    5   17       1
    18    7   18       1
    19    7   19       1
    20    7   20       1
    21    8   21       1
    22    9   22       1
    23   13   23       1
@<TRIPOS>SUBSTRUCTURE
     1 FER908      1 GROUP             4 A     FER     0 **** FER A 908
