@<TRIPOS>MOLECULE
2hps_CTZ_1_ligand
   51    55     1     0     0
SMALL
NO_CHARGES


@<TRIPOS>ATOM
     1 N1         -31.5440    18.0210    44.1980 N.2          1 CTZ187   0.0000
     2 C2         -32.7570    18.6290    44.0990 C.2          1 CTZ187   0.0000
     3 C3         -33.6100    17.5680    43.5600 C.2          1 CTZ187   0.0000
     4 N4         -32.9240    16.4420    43.3840 N.pl3        1 CTZ187   0.0000
     5 C5         -33.2940    15.2330    42.9130 C.2          1 CTZ187   0.0000
     6 C6         -32.3270    14.2290    42.8140 C.2          1 CTZ187   0.0000
     7 N7         -31.0490    14.4510    43.1890 N.2          1 CTZ187   0.0000
     8 C8         -30.6500    15.6470    43.6750 C.2          1 CTZ187   0.0000
     9 C9         -31.6630    16.7250    43.7620 C.2          1 CTZ187   0.0000
    10 C10        -33.0830    20.0600    44.4560 C.3          1 CTZ187   0.0000
    11 C11        -32.2720    20.9310    43.5300 C.ar         1 CTZ187   0.0000
    12 C12        -31.2400    21.7110    44.0490 C.ar         1 CTZ187   0.0000
    13 C13        -30.4640    22.5140    43.2220 C.ar         1 CTZ187   0.0000
    14 C14        -30.7440    22.5290    41.8520 C.ar         1 CTZ187   0.0000
    15 C15        -31.7740    21.7400    41.3180 C.ar         1 CTZ187   0.0000
    16 C16        -32.5440    20.9350    42.1610 C.ar         1 CTZ187   0.0000
    17 O17        -29.9860    23.3090    41.0410 O.3          1 CTZ187  -1.0000
    18 O18        -34.8660    17.6750    43.2740 O.3          1 CTZ187  -1.0000
    19 C19        -32.7260    12.8890    42.3280 C.ar         1 CTZ187   0.0000
    20 C20        -33.6960    12.7270    41.3360 C.ar         1 CTZ187   0.0000
    21 C21        -34.0560    11.4500    40.9120 C.ar         1 CTZ187   0.0000
    22 C22        -33.4580    10.3220    41.4920 C.ar         1 CTZ187   0.0000
    23 C23        -32.5040    10.4680    42.4890 C.ar         1 CTZ187   0.0000
    24 C24        -32.1390    11.7520    42.9120 C.ar         1 CTZ187   0.0000
    25 O25        -33.8360     9.0880    41.0610 O.3          1 CTZ187   0.0000
    26 C26        -29.2190    15.9450    44.0840 C.3          1 CTZ187   0.0000
    27 C27        -29.0150    15.5000    45.5090 C.ar         1 CTZ187   0.0000
    28 C28        -28.7660    16.4180    46.5280 C.ar         1 CTZ187   0.0000
    29 C29        -28.5780    15.9580    47.8320 C.ar         1 CTZ187   0.0000
    30 C30        -28.6580    14.5840    48.1070 C.ar         1 CTZ187   0.0000
    31 C31        -28.8930    13.6660    47.0840 C.ar         1 CTZ187   0.0000
    32 C32        -29.0660    14.1280    45.7770 C.ar         1 CTZ187   0.0000
    33 H1         -34.2403    15.0590    42.6405 H            1 CTZ187   0.0000
    34 H2         -32.8351    20.2433    45.4073 H            1 CTZ187   0.0000
    35 H3         -34.0592    20.2340    44.3265 H            1 CTZ187   0.0000
    36 H4         -31.0552    21.6924    45.0316 H            1 CTZ187   0.0000
    37 H5         -29.7219    23.0688    43.5982 H            1 CTZ187   0.0000
    38 H6         -31.9567    21.7539    40.3349 H            1 CTZ187   0.0000
    39 H7         -33.2799    20.3694    41.7888 H            1 CTZ187   0.0000
    40 H8         -34.1328    13.5294    40.9294 H            1 CTZ187   0.0000
    41 H9         -34.7418    11.3374    40.1930 H            1 CTZ187   0.0000
    42 H10        -32.0802     9.6621    42.9024 H            1 CTZ187   0.0000
    43 H11        -31.4562    11.8614    43.6344 H            1 CTZ187   0.0000
    44 H12        -33.4223     8.2702    41.4611 H            1 CTZ187   0.0000
    45 H13        -29.0469    16.9274    44.0114 H            1 CTZ187   0.0000
    46 H14        -28.5890    15.4510    43.4848 H            1 CTZ187   0.0000
    47 H15        -28.7225    17.3965    46.3266 H            1 CTZ187   0.0000
    48 H16        -28.3866    16.6061    48.5691 H            1 CTZ187   0.0000
    49 H17        -28.5453    14.2600    49.0463 H            1 CTZ187   0.0000
    50 H18        -28.9372    12.6872    47.2839 H            1 CTZ187   0.0000
    51 H19        -29.2261    13.4785    45.0337 H            1 CTZ187   0.0000
@<TRIPOS>BOND
     1    1    2       1
     2    1    9       2
     3    2    3       2
     4    2   10       1
     5    3    4       1
     6    3   18       1
     7    4    5       1
     8    4    9       1
     9    5    6       2
    10    6    7       1
    11    6   19       1
    12    7    8       2
    13    8    9       1
    14    8   26       1
    15   10   11       1
    16   11   12      ar
    17   11   16      ar
    18   12   13      ar
    19   13   14      ar
    20   14   15      ar
    21   14   17       1
    22   15   16      ar
    23   19   20      ar
    24   19   24      ar
    25   20   21      ar
    26   21   22      ar
    27   22   23      ar
    28   22   25       1
    29   23   24      ar
    30   26   27       1
    31   27   28      ar
    32   27   32      ar
    33   28   29      ar
    34   29   30      ar
    35   30   31      ar
    36   31   32      ar
    37    5   33       1
    38   10   34       1
    39   10   35       1
    40   12   36       1
    41   13   37       1
    42   15   38       1
    43   16   39       1
    44   31   50       1
    45   32   51       1
    46   20   40       1
    47   21   41       1
    48   23   42       1
    49   24   43       1
    50   25   44       1
    51   26   45       1
    52   26   46       1
    53   28   47       1
    54   29   48       1
    55   30   49       1
@<TRIPOS>SUBSTRUCTURE
     1 CTZ187      1 GROUP             4 A     CTZ     0 **** CTZ A 187
