@<TRIPOS>MOLECULE
4hyx_RET_1_ligand
   48    48     1     0     0
SMALL
NO_CHARGES


@<TRIPOS>ATOM
     1 C1         -21.8440    -0.3270    -0.1000 C.3          1 RET301   0.0000
     2 C2         -22.4820     0.8380     0.6080 C.3          1 RET301   0.0000
     3 C3         -23.6440     0.6900     1.5450 C.3          1 RET301   0.0000
     4 C4         -23.7040    -0.5890     2.3000 C.3          1 RET301   0.0000
     5 C5         -22.9670    -1.7620     1.7230 C.2          1 RET301   0.0000
     6 C6         -22.1140    -1.6800     0.6320 C.2          1 RET301   0.0000
     7 C7         -21.3990    -2.9080     0.2650 C.2          1 RET301   0.0000
     8 C8         -20.3620    -3.0610    -0.5830 C.2          1 RET301   0.0000
     9 C9         -19.7610    -4.3570    -0.8880 C.2          1 RET301   0.0000
    10 C10        -18.8670    -4.3200    -1.8770 C.2          1 RET301   0.0000
    11 C11        -18.1350    -5.3880    -2.4100 C.2          1 RET301   0.0000
    12 C12        -17.2270    -5.0690    -3.2830 C.2          1 RET301   0.0000
    13 C13        -16.4320    -6.0700    -3.9630 C.2          1 RET301   0.0000
    14 C14        -15.7570    -5.5930    -4.9780 C.2          1 RET301   0.0000
    15 C15        -15.0400    -6.5910    -5.6420 C.2          1 RET301   0.0000
    16 C16        -22.2740    -0.3360    -1.5610 C.3          1 RET301   0.0000
    17 C17        -20.3470    -0.0330    -0.1370 C.3          1 RET301   0.0000
    18 C18        -23.1410    -2.9580     2.6610 C.3          1 RET301   0.0000
    19 C19        -20.1360    -5.6010    -0.1720 C.2          1 RET301   0.0000
    20 C20        -16.3260    -7.5300    -3.7160 C.3          1 RET301   0.0000
    21 H1         -22.7859     1.4637    -0.1105 H            1 RET301   0.0000
    22 H2         -21.7532     1.2696     1.1396 H            1 RET301   0.0000
    23 H3         -24.4838     0.7695     1.0080 H            1 RET301   0.0000
    24 H4         -23.6007     1.4368     2.2086 H            1 RET301   0.0000
    25 H5         -24.6669    -0.8475     2.3776 H            1 RET301   0.0000
    26 H6         -23.3302    -0.4179     3.2116 H            1 RET301   0.0000
    27 H7         -21.7254    -3.7453     0.7036 H            1 RET301   0.0000
    28 H8         -19.9856    -2.2468    -1.0251 H            1 RET301   0.0000
    29 H9         -18.6996    -3.4232    -2.2864 H            1 RET301   0.0000
    30 H10        -18.3004    -6.3355    -2.1363 H            1 RET301   0.0000
    31 H11        -17.0726    -4.1032    -3.4915 H            1 RET301   0.0000
    32 H12        -15.7549    -4.6296    -5.2459 H            1 RET301   0.0000
    33 H13        -14.4807    -6.3594    -6.4380 H            1 RET301   0.0000
    34 H14        -15.0860    -7.5371    -5.3214 H            1 RET301   0.0000
    35 H15        -21.8488    -1.1108    -2.0289 H            1 RET301   0.0000
    36 H16        -23.2691    -0.4192    -1.6151 H            1 RET301   0.0000
    37 H17        -21.9865     0.5161    -1.9983 H            1 RET301   0.0000
    38 H18        -19.8717    -0.7811    -0.6002 H            1 RET301   0.0000
    39 H19        -20.1871     0.8209    -0.6324 H            1 RET301   0.0000
    40 H20        -20.0012     0.0539     0.7973 H            1 RET301   0.0000
    41 H21        -22.6541    -3.7478     2.2879 H            1 RET301   0.0000
    42 H22        -22.7694    -2.7322     3.5615 H            1 RET301   0.0000
    43 H23        -24.1132    -3.1758     2.7467 H            1 RET301   0.0000
    44 H24        -19.6992    -6.4677    -0.4130 H            1 RET301   0.0000
    45 H25        -20.8256    -5.5729     0.5516 H            1 RET301   0.0000
    46 H26        -15.6840    -7.9327    -4.3684 H            1 RET301   0.0000
    47 H27        -15.9976    -7.6875    -2.7847 H            1 RET301   0.0000
    48 H28        -17.2250    -7.9532    -3.8285 H            1 RET301   0.0000
@<TRIPOS>BOND
     1    1    2       1
     2    1    6       1
     3    1   16       1
     4    1   17       1
     5    2    3       1
     6    3    4       1
     7    4    5       1
     8    5    6       2
     9    5   18       1
    10    6    7       1
    11    7    8       2
    12    8    9       1
    13    9   10       1
    14    9   19       2
    15   10   11       2
    16   11   12       1
    17   12   13       2
    18   13   14       1
    19   13   20       1
    20   14   15       2
    21    2   21       1
    22    2   22       1
    23    3   23       1
    24    3   24       1
    25    4   25       1
    26    4   26       1
    27    7   27       1
    28    8   28       1
    29   10   29       1
    30   11   30       1
    31   12   31       1
    32   14   32       1
    33   15   33       1
    34   15   34       1
    35   16   35       1
    36   16   36       1
    37   16   37       1
    38   17   38       1
    39   17   39       1
    40   17   40       1
    41   18   41       1
    42   18   42       1
    43   18   43       1
    44   19   44       1
    45   19   45       1
    46   20   46       1
    47   20   47       1
    48   20   48       1
@<TRIPOS>SUBSTRUCTURE
     1 RET301      1 GROUP             4 A     RET     0 **** RET A 301
