@<TRIPOS>MOLECULE
4x7y_SAH_2_ligand
   46    48     1     0     0
SMALL
NO_CHARGES


@<TRIPOS>ATOM
     1 N           17.4230    -6.0720   103.6600 N.4          1 SAH302   1.0000
     2 CA          17.6340    -7.2820   104.5170 C.3          1 SAH302   0.0000
     3 CB          17.7920    -8.5770   103.7040 C.3          1 SAH302   0.0000
     4 CG          16.5170    -8.9290   102.9310 C.3          1 SAH302   0.0000
     5 SD          16.4950   -10.6350   102.4650 S.3          1 SAH302   0.0000
     6 C           18.8170    -7.0290   105.4080 C.2          1 SAH302   0.0000
     7 O           19.5290    -7.9580   105.7620 O.co2        1 SAH302   0.0000
     8 OXT         19.0330    -5.8770   105.7950 O.co2        1 SAH302  -1.0000
     9 C5'         15.0880   -10.7670   101.3770 C.3          1 SAH302   0.0000
    10 C4'         13.7430   -10.4100   102.0020 C.3          1 SAH302   0.0000
    11 O4'         12.7270   -10.3190   100.9800 O.3          1 SAH302   0.0000
    12 C3'         13.2400   -11.4740   102.9910 C.3          1 SAH302   0.0000
    13 O3'         12.9720   -10.8690   104.2670 O.3          1 SAH302   0.0000
    14 C2'         11.9820   -12.0590   102.3430 C.3          1 SAH302   0.0000
    15 O2'         10.9410   -12.4320   103.2500 O.3          1 SAH302   0.0000
    16 C1'         11.5170   -10.9250   101.4670 C.3          1 SAH302   0.0000
    17 N9          10.7980   -11.2090   100.2190 N.pl3        1 SAH302   0.0000
    18 C8          11.3030   -11.8670    99.1570 C.2          1 SAH302   0.0000
    19 N7          10.4210   -11.8580    98.1380 N.2          1 SAH302   0.0000
    20 C5           9.3470   -11.1600    98.5470 C.ar         1 SAH302   0.0000
    21 C6           8.0560   -10.7620    97.9580 C.ar         1 SAH302   0.0000
    22 N6           7.7280   -11.1010    96.6830 N.pl3        1 SAH302   0.0000
    23 N1           7.2300   -10.0210    98.7180 N.ar         1 SAH302   0.0000
    24 C2           7.5170    -9.6510    99.9970 C.ar         1 SAH302   0.0000
    25 N3           8.6780    -9.9840   100.6000 N.ar         1 SAH302   0.0000
    26 C4           9.5970   -10.7190    99.9260 C.ar         1 SAH302   0.0000
    27 H1          16.4439    -5.9394   103.5058 H            1 SAH302   0.0000
    28 H2          17.7999    -5.2680   104.1199 H            1 SAH302   0.0000
    29 HA          16.8291    -7.3855   105.1014 H            1 SAH302   0.0000
    30 HB1         18.0075    -9.3267   104.3297 H            1 SAH302   0.0000
    31 HB2         18.5421    -8.4600   103.0532 H            1 SAH302   0.0000
    32 HG1         16.4708    -8.3658   102.1060 H            1 SAH302   0.0000
    33 HG2         15.7233    -8.7394   103.5090 H            1 SAH302   0.0000
    34 H5'1        15.0365   -11.7114   101.0522 H            1 SAH302   0.0000
    35 H5'2        15.2397   -10.1553   100.6006 H            1 SAH302   0.0000
    36 H4'         13.8194    -9.5307   102.4722 H            1 SAH302   0.0000
    37 H3'         13.9299   -12.1903   103.0955 H            1 SAH302   0.0000
    38 H12         12.2733   -10.1616   104.1603 H            1 SAH302   0.0000
    39 H2'         12.2300   -12.8434   101.7745 H            1 SAH302   0.0000
    40 H14         10.6453   -11.6285   103.7667 H            1 SAH302   0.0000
    41 H1'         11.0020   -10.2638   102.0125 H            1 SAH302   0.0000
    42 H16         12.2038   -12.3002    99.1290 H            1 SAH302   0.0000
    43 H17          6.8468   -10.8210    96.3021 H            1 SAH302   0.0000
    44 H18          8.3680   -11.6303    96.1260 H            1 SAH302   0.0000
    45 H19          6.8447    -9.1143   100.5068 H            1 SAH302   0.0000
    46 H20         17.8843    -6.2007   102.7821 H            1 SAH302   0.0000
@<TRIPOS>BOND
     1    1    2       1
     2    2    3       1
     3    2    6       1
     4    3    4       1
     5    4    5       1
     6    5    9       1
     7    6    7      ar
     8    6    8      ar
     9    9   10       1
    10   10   11       1
    11   10   12       1
    12   11   16       1
    13   12   13       1
    14   12   14       1
    15   14   15       1
    16   14   16       1
    17   16   17       1
    18   17   18       1
    19   17   26       1
    20   18   19       2
    21   19   20       1
    22   20   21      ar
    23   20   26      ar
    24   21   22       1
    25   21   23      ar
    26   23   24      ar
    27   24   25      ar
    28   25   26      ar
    29    1   27       1
    30    1   28       1
    31    2   29       1
    32    3   30       1
    33    3   31       1
    34    4   32       1
    35    4   33       1
    36    1   46       1
    37    9   34       1
    38    9   35       1
    39   10   36       1
    40   12   37       1
    41   13   38       1
    42   14   39       1
    43   15   40       1
    44   16   41       1
    45   18   42       1
    46   22   43       1
    47   22   44       1
    48   24   45       1
@<TRIPOS>SUBSTRUCTURE
     1 SAH302      1 GROUP             4 B     SAH     0 **** SAH B 302
