@<TRIPOS>MOLECULE
5fa5_MTA_1_ligand
   35    37     1     0     0
SMALL
NO_CHARGES


@<TRIPOS>ATOM
     1 CS         -21.4870   -98.7160    -6.7590 C.3          1 MTA701   0.0000
     2 S5'        -19.9560   -97.7640    -6.5350 S.3          1 MTA701   0.0000
     3 C5'        -18.6980   -99.0320    -6.1990 C.3          1 MTA701   0.0000
     4 C4'        -18.9540   -99.8940    -4.9300 C.3          1 MTA701   0.0000
     5 O4'        -17.9340  -100.8890    -4.8180 O.3          1 MTA701   0.0000
     6 C2'        -17.5330   -99.4050    -3.0450 C.3          1 MTA701   0.0000
     7 O2'        -17.4080   -99.3420    -1.6300 O.3          1 MTA701   0.0000
     8 C3'        -18.9380   -99.1310    -3.5930 C.3          1 MTA701   0.0000
     9 O3'        -19.9560   -99.5570    -2.7040 O.3          1 MTA701   0.0000
    10 C1'        -17.3180  -100.8240    -3.5740 C.3          1 MTA701   0.0000
    11 N9         -15.8810  -101.1480    -3.7470 N.pl3        1 MTA701   0.0000
    12 C8         -14.9330  -100.4640    -4.4510 C.2          1 MTA701   0.0000
    13 N7         -13.7500  -101.0290    -4.4630 N.2          1 MTA701   0.0000
    14 C5         -13.9170  -102.1990    -3.7330 C.ar         1 MTA701   0.0000
    15 C6         -13.0530  -103.2620    -3.3600 C.ar         1 MTA701   0.0000
    16 N6         -11.7570  -103.2950    -3.7210 N.pl3        1 MTA701   0.0000
    17 N1         -13.5670  -104.3010    -2.6500 N.ar         1 MTA701   0.0000
    18 C2         -14.8760  -104.2920    -2.3170 C.ar         1 MTA701   0.0000
    19 N3         -15.8050  -103.3450    -2.5900 N.ar         1 MTA701   0.0000
    20 C4         -15.2740  -102.3240    -3.3410 C.ar         1 MTA701   0.0000
    21 HS1        -22.2434   -98.0906    -6.9509 H            1 MTA701   0.0000
    22 HS2        -21.3763   -99.3500    -7.5244 H            1 MTA701   0.0000
    23 HS3        -21.6840   -99.2314    -5.9250 H            1 MTA701   0.0000
    24 H5'1       -17.8166   -98.5727    -6.0890 H            1 MTA701   0.0000
    25 H5'2       -18.6580   -99.6456    -6.9876 H            1 MTA701   0.0000
    26 H4'        -19.8380  -100.3514    -5.0268 H            1 MTA701   0.0000
    27 H2'        -16.8765   -98.7822    -3.4706 H            1 MTA701   0.0000
    28 H8         -18.0123  -100.0199    -1.2115 H            1 MTA701   0.0000
    29 H3'        -19.0400   -98.1519    -3.7689 H            1 MTA701   0.0000
    30 H10        -19.8367  -100.5291    -2.5018 H            1 MTA701   0.0000
    31 H1'        -17.7407  -101.4838    -2.9528 H            1 MTA701   0.0000
    32 H12        -15.1250   -99.6018    -4.9197 H            1 MTA701   0.0000
    33 H13        -11.1788  -104.0608    -3.4393 H            1 MTA701   0.0000
    34 H14        -11.3721  -102.5538    -4.2709 H            1 MTA701   0.0000
    35 H15        -15.2007  -105.0861    -1.8032 H            1 MTA701   0.0000
@<TRIPOS>BOND
     1    1    2       1
     2    2    3       1
     3    3    4       1
     4    4    5       1
     5    4    8       1
     6    5   10       1
     7    6    7       1
     8    6    8       1
     9    6   10       1
    10    8    9       1
    11   10   11       1
    12   11   12       1
    13   11   20       1
    14   12   13       2
    15   13   14       1
    16   14   15      ar
    17   14   20      ar
    18   15   16       1
    19   15   17      ar
    20   17   18      ar
    21   18   19      ar
    22   19   20      ar
    23    1   21       1
    24    1   22       1
    25    1   23       1
    26    3   24       1
    27    3   25       1
    28    4   26       1
    29    6   27       1
    30    7   28       1
    31    8   29       1
    32    9   30       1
    33   10   31       1
    34   12   32       1
    35   16   33       1
    36   16   34       1
    37   18   35       1
@<TRIPOS>SUBSTRUCTURE
     1 MTA701      1 GROUP             4 A     MTA     0 **** MTA A 701
