@<TRIPOS>MOLECULE
3ahi_HTL_1_ligand
   47    48     1     0     0
SMALL
NO_CHARGES


@<TRIPOS>ATOM
     1 N1'         59.8990    47.6350     6.6910 N.ar         1 HTL827   0.0000
     2 C2'         59.0640    48.5110     7.3210 C.ar         1 HTL827   0.0000
     3 C2A         58.1680    49.4810     6.5390 C.3          1 HTL827   0.0000
     4 N3'         59.0350    48.5550     8.6380 N.ar         1 HTL827   0.0000
     5 C4'         59.8350    47.6850     9.3620 C.ar         1 HTL827   0.0000
     6 N4'         59.6690    47.7230    10.7130 N.pl3        1 HTL827   0.0000
     7 C5'         60.7020    46.7460     8.7290 C.ar         1 HTL827   0.0000
     8 C6'         60.6760    46.7970     7.3590 C.ar         1 HTL827   0.0000
     9 C35         61.6830    45.6730     9.3280 C.3          1 HTL827   0.0000
    10 N3          62.5680    46.4380    10.2600 N.2          1 HTL827   1.0000
    11 C2          62.3830    46.4340    11.6080 C.2          1 HTL827   0.0000
    12 S1          63.5520    47.5420    12.3730 S.3          1 HTL827   0.0000
    13 C5          64.3940    47.7880    10.8710 C.2          1 HTL827   0.0000
    14 C4          63.6880    47.1380     9.8590 C.2          1 HTL827   0.0000
    15 C4A         64.1340    47.0780     8.4200 C.3          1 HTL827   0.0000
    16 C5A         65.6330    48.6830    10.9530 C.3          1 HTL827   0.0000
    17 C5B         65.3160    50.1120    11.3490 C.3          1 HTL827   0.0000
    18 O5G         66.5880    50.7980    11.4240 O.3          1 HTL827   0.0000
    19 P1          66.5170    52.2580    11.8840 P.3          1 HTL827   0.0000
    20 O11         66.2330    52.2120    13.4450 O.3          1 HTL827   0.0000
    21 O12         67.8500    52.8620    11.4860 O.co2        1 HTL827   0.0000
    22 O13         65.3640    52.9230    11.3930 O.co2        1 HTL827  -1.0000
    23 P2          67.3950    51.8650    14.5480 P.3          1 HTL827   0.0000
    24 O21         68.7990    51.8600    14.0100 O.co2        1 HTL827   0.0000
    25 O22         67.1690    53.0830    15.4970 O.co2        1 HTL827  -1.0000
    26 O23         66.9740    50.5770    15.2520 O.co2        1 HTL827  -1.0000
    27 C1'         61.4220    45.6280    12.4710 C.2          1 HTL827   0.0000
    28 O2'         60.5830    44.8120    11.9990 O.2          1 HTL827   0.0000
    29 C3'         61.4550    45.9640    13.9820 C.3          1 HTL827   0.0000
    30 H2A1        57.6361    50.0341     7.1803 H            1 HTL827   0.0000
    31 H2A2        58.7371    50.0794     5.9751 H            1 HTL827   0.0000
    32 H2A3        57.5470    48.9615     5.9521 H            1 HTL827   0.0000
    33 H4'1        60.2122    47.1232    11.3006 H            1 HTL827   0.0000
    34 H4'2        59.0039    48.3507    11.1176 H            1 HTL827   0.0000
    35 H6'         61.2675    46.1765     6.8441 H            1 HTL827   0.0000
    36 H7          62.2222    45.2454     8.6024 H            1 HTL827   0.0000
    37 H8          61.1743    44.9693     9.8241 H            1 HTL827   0.0000
    38 H4A1        64.9545    47.6373     8.3017 H            1 HTL827   0.0000
    39 H4A2        64.3380    46.1306     8.1735 H            1 HTL827   0.0000
    40 H4A3        63.4053    47.4263     7.8304 H            1 HTL827   0.0000
    41 H5A1        66.0771    48.6931    10.0571 H            1 HTL827   0.0000
    42 H5A2        66.2588    48.2972    11.6309 H            1 HTL827   0.0000
    43 H5B1        64.8575    50.1326    12.2374 H            1 HTL827   0.0000
    44 H5B2        64.7301    50.5410    10.6615 H            1 HTL827   0.0000
    45 H3'1        60.7953    45.3890    14.4658 H            1 HTL827   0.0000
    46 H3'2        62.3725    45.7935    14.3414 H            1 HTL827   0.0000
    47 H3'3        61.2186    46.9265    14.1147 H            1 HTL827   0.0000
@<TRIPOS>BOND
     1    1    2      ar
     2    1    8      ar
     3    2    3       1
     4    2    4      ar
     5    4    5      ar
     6    5    6       1
     7    5    7      ar
     8    7    8      ar
     9    7    9       1
    10    9   10       1
    11   10   11       2
    12   10   14       1
    13   11   12       1
    14   11   27       1
    15   12   13       1
    16   13   14       2
    17   13   16       1
    18   14   15       1
    19   16   17       1
    20   17   18       1
    21   18   19       1
    22   19   20       1
    23   19   21      ar
    24   19   22      ar
    25   20   23       1
    26   23   24      ar
    27   23   25      ar
    28   23   26      ar
    29   27   28       2
    30   27   29       1
    31    3   30       1
    32    3   31       1
    33    3   32       1
    34    6   33       1
    35    6   34       1
    36    8   35       1
    37    9   36       1
    38    9   37       1
    39   15   38       1
    40   15   39       1
    41   15   40       1
    42   16   41       1
    43   16   42       1
    44   17   43       1
    45   17   44       1
    46   29   47       1
    47   29   46       1
    48   29   45       1
@<TRIPOS>SUBSTRUCTURE
     1 HTL827      1 GROUP             4 A     HTL     0 **** HTL A 827
