@<TRIPOS>MOLECULE
2jdt_I5S_1_ligand
   51    53     1     0     0
SMALL
NO_CHARGES


@<TRIPOS>ATOM
     1 CL1         13.2310    14.5970    -0.2260 Cl           1 I5S1351   0.0000
     2 C2          13.6970    13.3090     0.7800 C.ar         1 I5S1351   0.0000
     3 C3          13.0560    13.1470     1.9910 C.ar         1 I5S1351   0.0000
     4 C4          13.4400    12.1090     2.8110 C.ar         1 I5S1351   0.0000
     5 C5          14.4570    11.2710     2.4130 C.ar         1 I5S1351   0.0000
     6 C6          14.8320    10.1160     3.3140 C.3          1 I5S1351   0.0000
     7 O7          13.9830     9.0340     2.7510 O.3          1 I5S1351   0.0000
     8 C8          14.2990     7.6970     3.1980 C.3          1 I5S1351   0.0000
     9 C9          13.0100     6.7910     3.3550 C.3          1 I5S1351   0.0000
    10 N10         11.6830     7.3230     2.8470 N.4          1 I5S1351   1.0000
    11 C13         11.0070     7.9290     3.8850 C.3          1 I5S1351   0.0000
    12 C14          9.5550     8.0250     3.5140 C.3          1 I5S1351   0.0000
    13 N15          9.0510     9.0620     4.3610 N.3          1 I5S1351   0.0000
    14 S16          8.8330    10.5260     3.6980 S.o2         1 I5S1351   0.0000
    15 O17          8.6970    11.3800     4.8170 O.2          1 I5S1351   0.0000
    16 O18          9.8540    10.7370     2.7460 O.2          1 I5S1351   0.0000
    17 C19          7.3160    10.3780     2.8450 C.ar         1 I5S1351   0.0000
    18 C20          7.3180    10.2840     1.4770 C.ar         1 I5S1351   0.0000
    19 C21          6.1460    10.1500     0.7510 C.ar         1 I5S1351   0.0000
    20 C22          4.9440    10.0720     1.3880 C.ar         1 I5S1351   0.0000
    21 C23          4.8970    10.1480     2.7960 C.ar         1 I5S1351   0.0000
    22 C24          3.6650    10.0830     3.4860 C.ar         1 I5S1351   0.0000
    23 N25          3.6290    10.1700     4.8120 N.ar         1 I5S1351   0.0000
    24 C26          4.7420    10.3040     5.5250 C.ar         1 I5S1351   0.0000
    25 C27          5.9800    10.3920     4.9460 C.ar         1 I5S1351   0.0000
    26 C28          6.0960    10.3200     3.5370 C.ar         1 I5S1351   0.0000
    27 C29         15.0880    11.4220     1.1800 C.ar         1 I5S1351   0.0000
    28 C30         14.7010    12.4640     0.3530 C.ar         1 I5S1351   0.0000
    29 H1          12.3260    13.7717     2.2683 H            1 I5S1351   0.0000
    30 H2          12.9834    11.9652     3.6890 H            1 I5S1351   0.0000
    31 H3          14.6020    10.3047     4.2687 H            1 I5S1351   0.0000
    32 H4          15.8046     9.8949     3.2428 H            1 I5S1351   0.0000
    33 H5          14.7601     7.7553     4.0834 H            1 I5S1351   0.0000
    34 H6          14.9108     7.2718     2.5309 H            1 I5S1351   0.0000
    35 H7          12.8984     6.6035     4.3309 H            1 I5S1351   0.0000
    36 H8          13.1900     5.9354     2.8696 H            1 I5S1351   0.0000
    37 H9          11.1355     6.5671     2.4881 H            1 I5S1351   0.0000
    38 H10         11.3772     8.8450     4.0398 H            1 I5S1351   0.0000
    39 H11         11.1075     7.3838     4.7173 H            1 I5S1351   0.0000
    40 H12          9.0846     7.1606     3.6915 H            1 I5S1351   0.0000
    41 H13          9.4495     8.2701     2.5503 H            1 I5S1351   0.0000
    42 H14          9.6937     9.1688     5.1196 H            1 I5S1351   0.0000
    43 H15          8.1906    10.3130     0.9895 H            1 I5S1351   0.0000
    44 H16          6.1823    10.1102    -0.2476 H            1 I5S1351   0.0000
    45 H17          4.1012     9.9617     0.8612 H            1 I5S1351   0.0000
    46 H18          2.8141     9.9707     2.9728 H            1 I5S1351   0.0000
    47 H19          4.6732    10.3420     6.5219 H            1 I5S1351   0.0000
    48 H20          6.7952    10.5062     5.5138 H            1 I5S1351   0.0000
    49 H21         15.8083    10.7888     0.8967 H            1 I5S1351   0.0000
    50 H22         15.1401    12.6009    -0.5349 H            1 I5S1351   0.0000
    51 H23         11.8468     7.9903     2.1204 H            1 I5S1351   0.0000
@<TRIPOS>BOND
     1    1    2       1
     2    2    3      ar
     3    2   28      ar
     4    3    4      ar
     5    4    5      ar
     6    5    6       1
     7    5   27      ar
     8    6    7       1
     9    7    8       1
    10    8    9       1
    11    9   10       1
    12   10   11       1
    13   11   12       1
    14   12   13       1
    15   13   14       1
    16   14   15       2
    17   14   16       2
    18   14   17       1
    19   17   18      ar
    20   17   26      ar
    21   18   19      ar
    22   19   20      ar
    23   20   21      ar
    24   21   22      ar
    25   21   26      ar
    26   22   23      ar
    27   23   24      ar
    28   24   25      ar
    29   25   26      ar
    30   27   28      ar
    31    3   29       1
    32    4   30       1
    33    6   31       1
    34    6   32       1
    35    8   33       1
    36    8   34       1
    37    9   35       1
    38    9   36       1
    39   10   37       1
    40   11   38       1
    41   11   39       1
    42   12   40       1
    43   12   41       1
    44   13   42       1
    45   18   43       1
    46   19   44       1
    47   20   45       1
    48   22   46       1
    49   24   47       1
    50   25   48       1
    51   27   49       1
    52   28   50       1
    53   10   51       1
@<TRIPOS>SUBSTRUCTURE
     1 I5S1351     1 GROUP             4 A     I5S     0 **** I5S A1351
