@<TRIPOS>MOLECULE
3vpb_ADP_4_ligand
   39    41     1     0     0
SMALL
NO_CHARGES


@<TRIPOS>ATOM
     1 PB          19.0330    -3.9030    -8.6360 P.3          1 ADP500   0.0000
     2 O1B         19.1750    -2.7720    -9.6210 O.co2        1 ADP500   0.0000
     3 O2B         19.9100    -5.1050    -8.9550 O.co2        1 ADP500  -1.0000
     4 O3B         19.1090    -3.4650    -7.2050 O.co2        1 ADP500  -1.0000
     5 PA          16.9130    -5.5490    -9.6830 P.3          1 ADP500   0.0000
     6 O1A         15.5840    -5.1000   -10.2300 O.co2        1 ADP500   0.0000
     7 O2A         17.8950    -6.1370   -10.6640 O.co2        1 ADP500  -1.0000
     8 O3A         17.4960    -4.3420    -8.8070 O.3          1 ADP500   0.0000
     9 O5'         16.5810    -6.5980    -8.5200 O.3          1 ADP500   0.0000
    10 C5'         17.5910    -7.3450    -7.8560 C.3          1 ADP500   0.0000
    11 C4'         17.2110    -8.8130    -7.8840 C.3          1 ADP500   0.0000
    12 O4'         15.9070    -8.9710    -7.3560 O.3          1 ADP500   0.0000
    13 C3'         17.1340    -9.3570    -9.3100 C.3          1 ADP500   0.0000
    14 O3'         18.3810    -9.9550    -9.6520 O.3          1 ADP500   0.0000
    15 C2'         16.0820   -10.4340    -9.2210 C.3          1 ADP500   0.0000
    16 O2'         16.6980   -11.6640    -8.7930 O.3          1 ADP500   0.0000
    17 C1'         15.1590    -9.9210    -8.1360 C.3          1 ADP500   0.0000
    18 N9          13.9640    -9.2750    -8.7520 N.pl3        1 ADP500   0.0000
    19 C8          13.7920    -7.9670    -9.0810 C.2          1 ADP500   0.0000
    20 N7          12.5620    -7.7680    -9.6170 N.2          1 ADP500   0.0000
    21 C5          11.9580    -8.9810    -9.6690 C.ar         1 ADP500   0.0000
    22 C6          10.6450    -9.4980   -10.0960 C.ar         1 ADP500   0.0000
    23 N6           9.7200    -8.6690   -10.6300 N.pl3        1 ADP500   0.0000
    24 N1          10.4040   -10.8270    -9.9460 N.ar         1 ADP500   0.0000
    25 C2          11.3060   -11.6650    -9.4050 C.ar         1 ADP500   0.0000
    26 N3          12.5320   -11.2780    -8.9810 N.ar         1 ADP500   0.0000
    27 C4          12.8820    -9.9550    -9.0830 C.ar         1 ADP500   0.0000
    28 H5'1        17.6692    -7.0361    -6.9081 H            1 ADP500   0.0000
    29 H5'2        18.4662    -7.2154    -8.3221 H            1 ADP500   0.0000
    30 H4'         17.8650    -9.3469    -7.3481 H            1 ADP500   0.0000
    31 H3'         16.8765    -8.6442    -9.9624 H            1 ADP500   0.0000
    32 H5          18.3346   -10.3123   -10.5848 H            1 ADP500   0.0000
    33 H2'         15.5995   -10.5482   -10.0894 H            1 ADP500   0.0000
    34 H7          16.0037   -12.3811    -8.7326 H            1 ADP500   0.0000
    35 H1'         14.8687   -10.6805    -7.5539 H            1 ADP500   0.0000
    36 H9          14.4772    -7.2511    -8.9465 H            1 ADP500   0.0000
    37 H10          8.8322    -9.0289   -10.9167 H            1 ADP500   0.0000
    38 H11          9.9237    -7.6960   -10.7382 H            1 ADP500   0.0000
    39 H12         11.0569   -12.6289    -9.3105 H            1 ADP500   0.0000
@<TRIPOS>BOND
     1    1    2      ar
     2    1    3      ar
     3    1    4      ar
     4    1    8       1
     5    5    6      ar
     6    5    7      ar
     7    5    8       1
     8    5    9       1
     9    9   10       1
    10   10   11       1
    11   11   12       1
    12   11   13       1
    13   12   17       1
    14   13   14       1
    15   13   15       1
    16   15   16       1
    17   15   17       1
    18   17   18       1
    19   18   19       1
    20   18   27       1
    21   19   20       2
    22   20   21       1
    23   21   22      ar
    24   21   27      ar
    25   22   23       1
    26   22   24      ar
    27   24   25      ar
    28   25   26      ar
    29   26   27      ar
    30   25   39       1
    31   23   38       1
    32   23   37       1
    33   10   28       1
    34   10   29       1
    35   11   30       1
    36   13   31       1
    37   14   32       1
    38   15   33       1
    39   16   34       1
    40   17   35       1
    41   19   36       1
@<TRIPOS>SUBSTRUCTURE
     1 ADP500      1 GROUP             4 D     ADP     0 **** ADP D 500
