@<TRIPOS>MOLECULE
3c6p_2S3_1_ligand
   30    31     1     0     0
SMALL
NO_CHARGES


@<TRIPOS>ATOM
     1 OAC         18.7890     8.6820    34.9250 O.co2        1 2S31001   0.0000
     2 CAM         18.4250     9.4120    33.9140 C.2          1 2S31001   0.0000
     3 OAB         17.6620     9.0100    33.0130 O.co2        1 2S31001  -1.0000
     4 CAQ         18.8410    10.8510    33.6940 C.3          1 2S31001   0.0000
     5 CAK         19.3040    11.0220    32.2610 C.3          1 2S31001   0.0000
     6 CAJ         18.7290    12.2840    31.6060 C.3          1 2S31001   0.0000
     7 CAI         17.4930    12.0890    30.7580 C.3          1 2S31001   0.0000
     8 CAN         17.6770    11.7200    34.0790 C.2          1 2S31001   0.0000
     9 CAP         17.3410    12.3390    35.2650 C.ar         1 2S31001   0.0000
    10 CAG         18.0760    12.3660    36.5000 C.ar         1 2S31001   0.0000
    11 CAE         17.5270    13.0710    37.5670 C.ar         1 2S31001   0.0000
    12 CAD         16.3140    13.7140    37.3880 C.ar         1 2S31001   0.0000
    13 CAF         15.5680    13.7090    36.1780 C.ar         1 2S31001   0.0000
    14 CAO         16.1090    12.9700    35.0750 C.ar         1 2S31001   0.0000
    15 NL          15.6820    12.7780    33.7560 N.pl3        1 2S31001   0.0000
    16 CAH         16.6110    11.9570    33.1180 C.2          1 2S31001   0.0000
    17 HAQ         19.6071    11.0573    34.3027 H            1 2S31001   0.0000
    18 HAK1        19.0126    10.2248    31.7323 H            1 2S31001   0.0000
    19 HAK2        20.3022    11.0817    32.2512 H            1 2S31001   0.0000
    20 HAJ1        19.4404    12.6770    31.0233 H            1 2S31001   0.0000
    21 HAJ2        18.5007    12.9296    32.3348 H            1 2S31001   0.0000
    22 HAI1        17.2046    12.9695    30.3818 H            1 2S31001   0.0000
    23 HAI2        17.6982    11.4580    30.0099 H            1 2S31001   0.0000
    24 HAI3        16.7586    11.7105    31.3213 H            1 2S31001   0.0000
    25 HAG         18.9529    11.8938    36.5896 H            1 2S31001   0.0000
    26 HAE         18.0001    13.1124    38.4470 H            1 2S31001   0.0000
    27 HAD         15.9359    14.2175    38.1649 H            1 2S31001   0.0000
    28 HAF         14.7010    14.2010    36.0993 H            1 2S31001   0.0000
    29 HL          14.8559    13.1621    33.3437 H            1 2S31001   0.0000
    30 HAH         16.5555    11.6016    32.1849 H            1 2S31001   0.0000
@<TRIPOS>BOND
     1    1    2      ar
     2    2    3      ar
     3    2    4       1
     4    4    5       1
     5    4    8       1
     6    5    6       1
     7    6    7       1
     8    8    9       1
     9    8   16       2
    10    9   10      ar
    11    9   14      ar
    12   10   11      ar
    13   11   12      ar
    14   12   13      ar
    15   13   14      ar
    16   14   15       1
    17   15   16       1
    18   16   30       1
    19    4   17       1
    20    5   18       1
    21    5   19       1
    22    6   20       1
    23    6   21       1
    24    7   22       1
    25    7   23       1
    26    7   24       1
    27   10   25       1
    28   11   26       1
    29   12   27       1
    30   13   28       1
    31   15   29       1
@<TRIPOS>SUBSTRUCTURE
     1 2S31001     1 GROUP             4 B     2S3     0 **** 2S3 B1001
