@<TRIPOS>MOLECULE
4hsu_FAD_1_ligand
   84    89     1     0     0
SMALL
NO_CHARGES


@<TRIPOS>ATOM
     1 PA          29.1530   -25.9020    20.6440 P.3          1 FAD901   0.0000
     2 O1A         29.1690   -24.5950    20.2500 O.co2        1 FAD901   0.0000
     3 O2A         29.5980   -26.6680    19.5850 O.co2        1 FAD901  -1.0000
     4 O5B         29.9170   -26.1560    21.7720 O.3          1 FAD901   0.0000
     5 C5B         30.1070   -27.3710    22.3160 C.3          1 FAD901   0.0000
     6 C4B         31.0960   -27.3320    23.4440 C.3          1 FAD901   0.0000
     7 O4B         31.3310   -28.6630    23.8300 O.3          1 FAD901   0.0000
     8 C3B         32.4200   -26.7910    22.9770 C.3          1 FAD901   0.0000
     9 O3B         32.9110   -25.9270    23.9590 O.3          1 FAD901   0.0000
    10 C2B         33.2780   -28.0160    22.9440 C.3          1 FAD901   0.0000
    11 O2B         34.5830   -27.6770    23.2930 O.3          1 FAD901   0.0000
    12 C1B         32.6590   -28.7820    24.0690 C.3          1 FAD901   0.0000
    13 N9A         33.0660   -30.1770    24.1270 N.pl3        1 FAD901   0.0000
    14 C8A         33.1420   -31.0470    23.1630 C.2          1 FAD901   0.0000
    15 N7A         33.5590   -32.1750    23.6500 N.2          1 FAD901   0.0000
    16 C5A         33.7380   -32.0450    24.9200 C.ar         1 FAD901   0.0000
    17 C6A         34.1550   -32.8810    25.9110 C.ar         1 FAD901   0.0000
    18 N6A         34.4530   -34.1000    25.6640 N.pl3        1 FAD901   0.0000
    19 N1A         34.2670   -32.4490    27.1330 N.ar         1 FAD901   0.0000
    20 C2A         33.9560   -31.2250    27.3870 C.ar         1 FAD901   0.0000
    21 N3A         33.5620   -30.3960    26.4690 N.ar         1 FAD901   0.0000
    22 C4A         33.4410   -30.7790    25.2220 C.ar         1 FAD901   0.0000
    23 N1          25.0280   -20.2640    13.9190 N.2          1 FAD901   0.0000
    24 C2          24.2300   -19.2120    13.7840 C.2          1 FAD901   0.0000
    25 O2          23.2720   -19.1120    14.4850 O.2          1 FAD901   0.0000
    26 N3          24.4960   -18.2740    12.8890 N.pl3        1 FAD901   0.0000
    27 C4          25.5660   -18.3870    12.0910 C.2          1 FAD901   0.0000
    28 O4          25.7700   -17.5280    11.2770 O.2          1 FAD901   0.0000
    29 C4X         26.3900   -19.4600    12.2060 C.2          1 FAD901   0.0000
    30 N5          27.4510   -19.6110    11.3950 N.2          1 FAD901   0.0000
    31 C5X         28.3840   -20.4820    11.7580 C.ar         1 FAD901   0.0000
    32 C6          29.5920   -20.4250    11.1390 C.ar         1 FAD901   0.0000
    33 C7          30.5770   -21.2800    11.5280 C.ar         1 FAD901   0.0000
    34 C7M         31.9090   -21.2180    10.8720 C.3          1 FAD901   0.0000
    35 C8          30.3430   -22.1870    12.5270 C.ar         1 FAD901   0.0000
    36 C8M         31.4090   -23.1490    12.9680 C.3          1 FAD901   0.0000
    37 C9          29.1210   -22.2370    13.1160 C.ar         1 FAD901   0.0000
    38 C9A         28.1270   -21.3970    12.7400 C.ar         1 FAD901   0.0000
    39 N10         26.8960   -21.4480    13.3410 N.pl3        1 FAD901   0.0000
    40 C10         26.1010   -20.4030    13.1430 C.2          1 FAD901   0.0000
    41 C1'         26.4970   -22.5180    14.2420 C.3          1 FAD901   0.0000
    42 C2'         26.4830   -22.2060    15.7330 C.3          1 FAD901   0.0000
    43 O2'         27.7180   -21.6850    16.0950 O.3          1 FAD901   0.0000
    44 C3'         26.2830   -23.4980    16.4750 C.3          1 FAD901   0.0000
    45 O3'         25.1030   -24.0020    16.0290 O.3          1 FAD901   0.0000
    46 C4'         26.2640   -23.4550    18.0050 C.3          1 FAD901   0.0000
    47 O4'         27.4550   -22.9260    18.4500 O.3          1 FAD901   0.0000
    48 C5'         26.2260   -24.8390    18.5680 C.3          1 FAD901   0.0000
    49 O5'         26.0620   -24.8510    19.9360 O.3          1 FAD901   0.0000
    50 P           26.5220   -25.8340    20.9190 P.3          1 FAD901   0.0000
    51 O1P         26.2940   -25.3500    22.1910 O.co2        1 FAD901   0.0000
    52 O2P         25.5890   -26.8210    20.7350 O.co2        1 FAD901  -1.0000
    53 O3P         27.8200   -26.4790    20.6790 O.3          1 FAD901   0.0000
    54 H5B1        30.4470   -27.9917    21.6095 H            1 FAD901   0.0000
    55 H5B2        29.2328   -27.7093    22.6643 H            1 FAD901   0.0000
    56 H4B         30.7420   -26.7958    24.2102 H            1 FAD901   0.0000
    57 H3B         32.3548   -26.3497    22.0820 H            1 FAD901   0.0000
    58 H5          33.0283   -26.4287    24.8160 H            1 FAD901   0.0000
    59 H2B         33.2252   -28.5012    22.0712 H            1 FAD901   0.0000
    60 H7          34.5914   -27.2884    24.2144 H            1 FAD901   0.0000
    61 H1B         32.8811   -28.3355    24.9358 H            1 FAD901   0.0000
    62 H8A         32.9162   -30.8748    22.2042 H            1 FAD901   0.0000
    63 H6A1        34.7575   -34.7000    26.4037 H            1 FAD901   0.0000
    64 H6A2        34.3815   -34.4531    24.7311 H            1 FAD901   0.0000
    65 H2A         34.0208   -30.8999    28.3305 H            1 FAD901   0.0000
    66 H13         23.8961   -17.4780    12.8082 H            1 FAD901   0.0000
    67 H14         29.7554   -19.7635    10.4071 H            1 FAD901   0.0000
    68 H7M1        32.5106   -21.9088    11.2731 H            1 FAD901   0.0000
    69 H7M2        31.8068   -21.3931     9.8928 H            1 FAD901   0.0000
    70 H7M3        32.3059   -20.3104    11.0086 H            1 FAD901   0.0000
    71 H8M1        31.0531   -23.7272    13.7022 H            1 FAD901   0.0000
    72 H8M2        31.6816   -23.7218    12.1950 H            1 FAD901   0.0000
    73 H8M3        32.2019   -22.6384    13.3005 H            1 FAD901   0.0000
    74 H21         28.9516   -22.9056    13.8401 H            1 FAD901   0.0000
    75 H1'1        27.1278   -23.2809    14.1005 H            1 FAD901   0.0000
    76 H1'2        25.5721   -22.7982    13.9849 H            1 FAD901   0.0000
    77 H2'         25.7516   -21.5594    15.9498 H            1 FAD901   0.0000
    78 H25         27.9143   -21.9230    17.0462 H            1 FAD901   0.0000
    79 H3'         27.0090   -24.1265    16.1958 H            1 FAD901   0.0000
    80 H27         24.4976   -23.2506    15.7664 H            1 FAD901   0.0000
    81 H4'         25.4898   -22.9154    18.3358 H            1 FAD901   0.0000
    82 H29         27.9214   -23.5951    19.0287 H            1 FAD901   0.0000
    83 H5'1        27.0852   -25.2992    18.3445 H            1 FAD901   0.0000
    84 H5'2        25.4642   -25.3339    18.1499 H            1 FAD901   0.0000
@<TRIPOS>BOND
     1    1    2      ar
     2    1    3      ar
     3    1    4       1
     4    1   53       1
     5    4    5       1
     6    5    6       1
     7    6    7       1
     8    6    8       1
     9    7   12       1
    10    8    9       1
    11    8   10       1
    12   10   11       1
    13   10   12       1
    14   12   13       1
    15   13   14       1
    16   13   22       1
    17   14   15       2
    18   15   16       1
    19   16   17      ar
    20   16   22      ar
    21   17   18       1
    22   17   19      ar
    23   19   20      ar
    24   20   21      ar
    25   21   22      ar
    26   23   24       1
    27   23   40       2
    28   24   25       2
    29   24   26       1
    30   26   27       1
    31   27   28       2
    32   27   29       1
    33   29   30       2
    34   29   40       1
    35   30   31       1
    36   31   32      ar
    37   31   38      ar
    38   32   33      ar
    39   33   34       1
    40   33   35      ar
    41   35   36       1
    42   35   37      ar
    43   37   38      ar
    44   38   39       1
    45   39   40       1
    46   39   41       1
    47   41   42       1
    48   42   43       1
    49   42   44       1
    50   44   45       1
    51   44   46       1
    52   46   47       1
    53   46   48       1
    54   48   49       1
    55   49   50       1
    56   50   51      ar
    57   50   52      ar
    58   50   53       1
    59   48   84       1
    60    5   54       1
    61    5   55       1
    62    6   56       1
    63    8   57       1
    64    9   58       1
    65   10   59       1
    66   11   60       1
    67   12   61       1
    68   14   62       1
    69   18   63       1
    70   18   64       1
    71   20   65       1
    72   26   66       1
    73   32   67       1
    74   34   68       1
    75   34   69       1
    76   34   70       1
    77   36   71       1
    78   36   72       1
    79   36   73       1
    80   37   74       1
    81   41   75       1
    82   41   76       1
    83   42   77       1
    84   43   78       1
    85   44   79       1
    86   45   80       1
    87   46   81       1
    88   47   82       1
    89   48   83       1
@<TRIPOS>SUBSTRUCTURE
     1 FAD901      1 GROUP             4 A     FAD     0 **** FAD A 901
