@<TRIPOS>MOLECULE
3fp0_FP0_1_ligand
   46    49     1     0     0
SMALL
NO_CHARGES


@<TRIPOS>ATOM
     1 C2          16.8970     4.5570   -31.6810 C.3          1 FP0520   0.0000
     2 C6          15.6610     5.6940   -29.2550 C.3          1 FP0520   0.0000
     3 C5          15.5440     6.3300   -30.6860 C.3          1 FP0520   0.0000
     4 C4          16.8630     6.9730   -31.1380 C.3          1 FP0520   0.0000
     5 C3          17.6890     5.8640   -31.8490 C.3          1 FP0520   0.0000
     6 C11         16.8720     4.7320   -29.1800 C.3          1 FP0520   0.0000
     7 C10         16.7680     3.7830   -27.9680 C.2          1 FP0520   0.0000
     8 C9          15.6150     3.5830   -27.2660 C.2          1 FP0520   0.0000
     9 C8          14.3440     4.3490   -27.5390 C.3          1 FP0520   0.0000
    10 C12         15.5160     5.1850   -31.7220 C.3          1 FP0520   0.0000
    11 C13         14.3020     4.3490   -31.9990 C.3          1 FP0520   0.0000
    12 O4          19.6940     7.6780   -32.1000 O.2          1 FP0520   0.0000
    13 C17         19.9770     6.6820   -31.4400 C.2          1 FP0520   0.0000
    14 C18         21.2710     6.3990   -30.7210 C.3          1 FP0520   0.0000
    15 O3          18.9940     5.6740   -31.3110 O.3          1 FP0520   0.0000
    16 O2          14.8330     5.2990   -32.9680 O.3          1 FP0520   0.0000
    17 O1          17.0960     3.9490   -30.3840 O.3          1 FP0520   0.0000
    18 C14         14.4250     7.3890   -30.8160 C.3          1 FP0520   0.0000
    19 C7          14.3760     4.8880   -28.9600 C.3          1 FP0520   0.0000
    20 C15         15.9380     6.8120   -28.2450 C.3          1 FP0520   0.0000
    21 O12         14.7570     7.4490   -27.7250 O.3          1 FP0520   0.0000
    22 C16         15.5620     2.5860   -26.1490 C.3          1 FP0520   0.0000
    23 H1          17.0498     3.9160   -32.4331 H            1 FP0520   0.0000
    24 H2          17.3648     7.3205   -30.3459 H            1 FP0520   0.0000
    25 H3          16.6793     7.7242   -31.7720 H            1 FP0520   0.0000
    26 H4          17.7627     6.0814   -32.8223 H            1 FP0520   0.0000
    27 H5          17.6861     5.2960   -29.0416 H            1 FP0520   0.0000
    28 H6          17.5887     3.2884   -27.6818 H            1 FP0520   0.0000
    29 H7          14.2681     5.1102   -26.8949 H            1 FP0520   0.0000
    30 H8          13.5578     3.7407   -27.4303 H            1 FP0520   0.0000
    31 H9          13.4405     4.5360   -31.5270 H            1 FP0520   0.0000
    32 H10         14.3901     3.3651   -32.1546 H            1 FP0520   0.0000
    33 H11         21.2129     5.5095   -30.2677 H            1 FP0520   0.0000
    34 H12         22.0231     6.3888   -31.3799 H            1 FP0520   0.0000
    35 H13         21.4356     7.1109   -30.0383 H            1 FP0520   0.0000
    36 H14         14.4117     7.7470   -31.7496 H            1 FP0520   0.0000
    37 H15         13.5421     6.9683   -30.6077 H            1 FP0520   0.0000
    38 H16         14.5975     8.1367   -30.1747 H            1 FP0520   0.0000
    39 H17         14.3262     4.1185   -29.5966 H            1 FP0520   0.0000
    40 H18         13.5847     5.4842   -29.0953 H            1 FP0520   0.0000
    41 H19         16.4968     7.5086   -28.6949 H            1 FP0520   0.0000
    42 H20         16.4464     6.4214   -27.4776 H            1 FP0520   0.0000
    43 H21         14.9639     8.4008   -27.4987 H            1 FP0520   0.0000
    44 H22         14.6433     2.5764   -25.7541 H            1 FP0520   0.0000
    45 H23         15.7823     1.6770   -26.5028 H            1 FP0520   0.0000
    46 H24         16.2250     2.8391   -25.4445 H            1 FP0520   0.0000
@<TRIPOS>BOND
     1    1    5       1
     2    1   10       1
     3    1   17       1
     4    2    3       1
     5    2    6       1
     6    2   19       1
     7    2   20       1
     8    3    4       1
     9    3   10       1
    10    3   18       1
    11    4    5       1
    12    5   15       1
    13    6    7       1
    14    6   17       1
    15    7    8       2
    16    8    9       1
    17    8   22       1
    18    9   19       1
    19   10   11       1
    20   10   16       1
    21   11   16       1
    22   12   13       2
    23   13   14       1
    24   13   15       1
    25   20   21       1
    26    1   23       1
    27    4   24       1
    28    4   25       1
    29    5   26       1
    30    6   27       1
    31    7   28       1
    32    9   29       1
    33    9   30       1
    34   11   31       1
    35   11   32       1
    36   14   33       1
    37   14   34       1
    38   14   35       1
    39   18   36       1
    40   18   37       1
    41   18   38       1
    42   19   39       1
    43   19   40       1
    44   20   41       1
    45   20   42       1
    46   21   43       1
    47   22   44       1
    48   22   45       1
    49   22   46       1
@<TRIPOS>SUBSTRUCTURE
     1 FP0520      1 GROUP             4 A     FP0     0 **** FP0 A 520
