@<TRIPOS>MOLECULE
2fxd_DR7_1_ligand
  103   105     1     0     0
SMALL
NO_CHARGES


@<TRIPOS>ATOM
     1 CAA          6.3550    -7.0270    17.2250 C.3          1 DR7102   0.0000
     2 OBI          6.5330    -6.1850    16.0500 O.3          1 DR7102   0.0000
     3 CBK          7.0740    -4.9750    16.1800 C.2          1 DR7102   0.0000
     4 OAI          7.3520    -4.5210    17.2540 O.2          1 DR7102   0.0000
     5 N            7.2590    -4.3320    15.0090 N.am         1 DR7102   0.0000
     6 CA           7.7130    -2.9360    15.0020 C.3          1 DR7102   0.0000
     7 CB           9.1920    -2.8620    14.5670 C.3          1 DR7102   0.0000
     8 CAE         10.1300    -3.5310    15.6220 C.3          1 DR7102   0.0000
     9 CG2          9.3860    -3.6630    13.2700 C.3          1 DR7102   0.0000
    10 CG1          9.5970    -1.3890    14.3490 C.3          1 DR7102   0.0000
    11 C            6.7810    -2.0600    14.1670 C.2          1 DR7102   0.0000
    12 O            6.7940    -2.1090    12.9320 O.2          1 DR7102   0.0000
    13 NBG          5.9610    -1.2690    14.9150 N.am         1 DR7102   0.0000
    14 CBT          4.8210    -0.5040    14.3800 C.3          1 DR7102   0.0000
    15 CBA          3.5270    -1.0080    15.0400 C.3          1 DR7102   0.0000
    16 CBO          3.2750    -2.4440    14.5850 C.ar         1 DR7102   0.0000
    17 CAT          2.6630    -2.6250    13.2790 C.ar         1 DR7102   0.0000
    18 CAP          2.4700    -3.9780    12.7810 C.ar         1 DR7102   0.0000
    19 CAN          2.9450    -5.0960    13.5920 C.ar         1 DR7102   0.0000
    20 CAQ          3.5120    -4.9260    14.9260 C.ar         1 DR7102   0.0000
    21 CAU          3.6710    -3.5640    15.4310 C.ar         1 DR7102   0.0000
    22 CBS          5.0480     0.9880    14.6940 C.3          1 DR7102   0.0000
    23 OAM          5.2810     1.1380    16.1110 O.3          1 DR7102   0.0000
    24 CBC          6.2760     1.5260    13.9510 C.3          1 DR7102   0.0000
    25 NBW          5.9750     1.5450    12.5150 N.3          1 DR7102   0.0000
    26 NBH          4.9490     2.4790    12.2640 N.am         1 DR7102   0.0000
    27 CBN          4.1130     2.3200    11.2440 C.2          1 DR7102   0.0000
    28 OAL          4.0920     1.3430    10.4980 O.2          1 DR7102   0.0000
    29 CBV          3.1470     3.4810    11.0470 C.3          1 DR7102   0.0000
    30 CBY          1.7020     3.0060    10.8810 C.3          1 DR7102   0.0000
    31 CAH          1.4890     2.3290     9.4930 C.3          1 DR7102   0.0000
    32 CAF          1.3270     1.9980    12.0070 C.3          1 DR7102   0.0000
    33 CAG          0.7280     4.2220    10.9330 C.3          1 DR7102   0.0000
    34 NBF          3.5810     4.2560     9.8750 N.am         1 DR7102   0.0000
    35 CBL          3.7890     5.5790    10.0130 C.2          1 DR7102   0.0000
    36 OAJ          3.5050     6.2310    10.9780 O.2          1 DR7102   0.0000
    37 OBJ          4.3380     6.1550     8.9530 O.3          1 DR7102   0.0000
    38 CAB          4.4270     7.6130     8.9160 C.3          1 DR7102   0.0000
    39 CBB          7.1400     1.7210    11.6070 C.3          1 DR7102   0.0000
    40 CBP          7.8370     3.0660    11.6500 C.ar         1 DR7102   0.0000
    41 CAW          7.5030     4.0420    10.6210 C.ar         1 DR7102   0.0000
    42 CAY          8.2190     5.3080    10.6060 C.ar         1 DR7102   0.0000
    43 CAX          8.8240     3.3270    12.6860 C.ar         1 DR7102   0.0000
    44 CAZ          9.5350     4.5920    12.6690 C.ar         1 DR7102   0.0000
    45 CBQ          9.2640     5.5820    11.6150 C.ar         1 DR7102   0.0000
    46 CBR         10.1280     6.8410    11.6080 C.ar         1 DR7102   0.0000
    47 CAV          9.7820     8.0920    10.9400 C.ar         1 DR7102   0.0000
    48 CAR         10.7230     9.2000    11.0210 C.ar         1 DR7102   0.0000
    49 CAO         11.9920     9.1410    11.7300 C.ar         1 DR7102   0.0000
    50 CAS         12.3280     7.9010    12.3940 C.ar         1 DR7102   0.0000
    51 NBD         11.4130     6.8430    12.3060 N.ar         1 DR7102   0.0000
    52 HAA1         5.9390    -7.8948    16.9533 H            1 DR7102   0.0000
    53 HAA2         7.2442    -7.2016    17.6478 H            1 DR7102   0.0000
    54 HAA3         5.7595    -6.5627    17.8807 H            1 DR7102   0.0000
    55 H4           7.0869    -4.8062    14.1456 H            1 DR7102   0.0000
    56 HA           7.6649    -2.6046    15.9443 H            1 DR7102   0.0000
    57 HAE1        11.0788    -3.4672    15.3125 H            1 DR7102   0.0000
    58 HAE2        10.0333    -3.0612    16.4995 H            1 DR7102   0.0000
    59 HAE3         9.8784    -4.4929    15.7293 H            1 DR7102   0.0000
    60 HG21        10.3444    -3.6147    12.9886 H            1 DR7102   0.0000
    61 HG22         9.1322    -4.6175    13.4266 H            1 DR7102   0.0000
    62 HG23         8.8076    -3.2780    12.5508 H            1 DR7102   0.0000
    63 HG11        10.5555    -1.3450    14.0674 H            1 DR7102   0.0000
    64 HG12         9.0215    -0.9870    13.6368 H            1 DR7102   0.0000
    65 HG13         9.4764    -0.8805    15.2016 H            1 DR7102   0.0000
    66 HBG          6.1460    -1.2032    15.8955 H            1 DR7102   0.0000
    67 HBT          4.7651    -0.6337    13.3900 H            1 DR7102   0.0000
    68 HBA1         2.7604    -0.4279    14.7646 H            1 DR7102   0.0000
    69 HBA2         3.6241    -0.9820    16.0349 H            1 DR7102   0.0000
    70 HAT          2.3805    -1.8356    12.7341 H            1 DR7102   0.0000
    71 HAP          2.0215    -4.1393    11.9019 H            1 DR7102   0.0000
    72 HAN          2.8787    -6.0202    13.2160 H            1 DR7102   0.0000
    73 HAQ          3.7828    -5.7157    15.4764 H            1 DR7102   0.0000
    74 HAU          4.0460    -3.4022    16.3438 H            1 DR7102   0.0000
    75 HBS          4.2392     1.5133    14.4296 H            1 DR7102   0.0000
    76 HAM          4.5805     1.7345    16.5027 H            1 DR7102   0.0000
    77 HBC1         7.0623     0.9328    14.1237 H            1 DR7102   0.0000
    78 HBC2         6.4821     2.4526    14.2654 H            1 DR7102   0.0000
    79 HBH          4.8491     3.2734    12.8631 H            1 DR7102   0.0000
    80 HBV          3.1949     4.0721    11.8522 H            1 DR7102   0.0000
    81 HAH1         0.5387     2.0287     9.4109 H            1 DR7102   0.0000
    82 HAH2         1.6951     2.9851     8.7670 H            1 DR7102   0.0000
    83 HAH3         2.0965     1.5390     9.4107 H            1 DR7102   0.0000
    84 HAF1         0.3811     1.6978    11.8842 H            1 DR7102   0.0000
    85 HAF2         1.9364     1.2064    11.9623 H            1 DR7102   0.0000
    86 HAF3         1.4227     2.4424    12.8977 H            1 DR7102   0.0000
    87 HAG1        -0.2126     3.9006    10.8236 H            1 DR7102   0.0000
    88 HAG2         0.8213     4.6864    11.8137 H            1 DR7102   0.0000
    89 HAG3         0.9505     4.8591    10.1950 H            1 DR7102   0.0000
    90 HBF          3.7191     3.8084     8.9915 H            1 DR7102   0.0000
    91 HAB1         4.8609     7.8989     8.0616 H            1 DR7102   0.0000
    92 HAB2         3.5085     8.0045     8.9707 H            1 DR7102   0.0000
    93 HAB3         4.9726     7.9334     9.6904 H            1 DR7102   0.0000
    94 HBB1         6.8198     1.5751    10.6710 H            1 DR7102   0.0000
    95 HBB2         7.8154     1.0217    11.8411 H            1 DR7102   0.0000
    96 HAW          6.7972     3.8458     9.9403 H            1 DR7102   0.0000
    97 HAY          8.0038     5.9946     9.9115 H            1 DR7102   0.0000
    98 HAX          9.0091     2.6479    13.3963 H            1 DR7102   0.0000
    99 HAZ         10.2123     4.7917    13.3770 H            1 DR7102   0.0000
   100 HAV          8.9211     8.1855    10.4398 H            1 DR7102   0.0000
   101 HAR         10.4821    10.0545    10.5608 H            1 DR7102   0.0000
   102 HAO         12.6085     9.9279    11.7572 H            1 DR7102   0.0000
   103 HAS         13.1852     7.8017    12.8994 H            1 DR7102   0.0000
@<TRIPOS>BOND
     1    1    2       1
     2    2    3       1
     3    3    4       2
     4    3    5      am
     5    5    6       1
     6    6    7       1
     7    6   11       1
     8    7    8       1
     9    7    9       1
    10    7   10       1
    11   11   12       2
    12   11   13      am
    13   13   14       1
    14   14   15       1
    15   14   22       1
    16   15   16       1
    17   16   17      ar
    18   16   21      ar
    19   17   18      ar
    20   18   19      ar
    21   19   20      ar
    22   20   21      ar
    23   22   23       1
    24   22   24       1
    25   24   25       1
    26   25   26       1
    27   25   39       1
    28   26   27      am
    29   27   28       2
    30   27   29       1
    31   29   30       1
    32   29   34       1
    33   30   31       1
    34   30   32       1
    35   30   33       1
    36   34   35      am
    37   35   36       2
    38   35   37       1
    39   37   38       1
    40   39   40       1
    41   40   41      ar
    42   40   43      ar
    43   41   42      ar
    44   42   45      ar
    45   43   44      ar
    46   44   45      ar
    47   45   46       1
    48   46   47      ar
    49   46   51      ar
    50   47   48      ar
    51   48   49      ar
    52   49   50      ar
    53   50   51      ar
    54    1   52       1
    55    1   53       1
    56    1   54       1
    57    5   55       1
    58    6   56       1
    59    8   57       1
    60    8   58       1
    61    8   59       1
    62    9   60       1
    63    9   61       1
    64    9   62       1
    65   10   63       1
    66   10   64       1
    67   10   65       1
    68   13   66       1
    69   14   67       1
    70   15   68       1
    71   15   69       1
    72   17   70       1
    73   18   71       1
    74   19   72       1
    75   20   73       1
    76   21   74       1
    77   22   75       1
    78   23   76       1
    79   24   77       1
    80   24   78       1
    81   26   79       1
    82   29   80       1
    83   31   81       1
    84   31   82       1
    85   31   83       1
    86   32   84       1
    87   32   85       1
    88   32   86       1
    89   33   87       1
    90   33   88       1
    91   33   89       1
    92   34   90       1
    93   38   91       1
    94   38   92       1
    95   38   93       1
    96   39   94       1
    97   39   95       1
    98   41   96       1
    99   42   97       1
   100   43   98       1
   101   44   99       1
   102   47  100       1
   103   48  101       1
   104   49  102       1
   105   50  103       1
@<TRIPOS>SUBSTRUCTURE
     1 DR7102      1 GROUP             4 A     DR7     0 **** DR7 A 102
