@<TRIPOS>MOLECULE
1ro8_C5P_1_ligand
   33    34     1     0     0
SMALL
NO_CHARGES


@<TRIPOS>ATOM
     1 O3P         28.6210    18.8010   -10.6050 O.co2        1 C5P2001   0.0000
     2 P           28.0100    17.6000    -9.8150 P.3          1 C5P2001   0.0000
     3 O1P         26.4800    17.6900    -9.5970 O.co2        1 C5P2001  -1.0000
     4 O2P         28.3590    16.2860   -10.5030 O.co2        1 C5P2001  -1.0000
     5 O5'         28.4970    17.2780    -8.4680 O.3          1 C5P2001   0.0000
     6 C5'         28.7940    18.4540    -7.7070 C.3          1 C5P2001   0.0000
     7 C4'         27.9350    19.1590    -6.7620 C.3          1 C5P2001   0.0000
     8 O4'         28.8390    20.1040    -6.2290 O.3          1 C5P2001   0.0000
     9 C3'         26.7770    19.9380    -7.3550 C.3          1 C5P2001   0.0000
    10 O3'         25.5830    19.1580    -7.2460 O.3          1 C5P2001   0.0000
    11 C2'         26.7780    21.1620    -6.4460 C.3          1 C5P2001   0.0000
    12 O2'         26.1440    21.0390    -5.1780 O.3          1 C5P2001   0.0000
    13 C1'         28.2530    21.4000    -6.3790 C.3          1 C5P2001   0.0000
    14 N1          29.3280    22.1200    -7.1230 N.pl3        1 C5P2001   0.0000
    15 C2          29.4380    23.5670    -6.9870 C.2          1 C5P2001   0.0000
    16 N3          30.3460    24.2750    -7.7430 N.2          1 C5P2001   0.0000
    17 C4          31.1720    23.6790    -8.7290 C.2          1 C5P2001   0.0000
    18 C5          31.0600    22.3180    -8.9360 C.2          1 C5P2001   0.0000
    19 C6          30.3190    21.5310    -8.1390 C.2          1 C5P2001   0.0000
    20 O2          28.6630    24.2270    -6.1530 O.2          1 C5P2001   0.0000
    21 N4          32.0380    24.4150    -9.4380 N.pl3        1 C5P2001   0.0000
    22 H5'1        29.0346    19.1427    -8.3910 H            1 C5P2001   0.0000
    23 H5'2        29.6068    18.2125    -7.1769 H            1 C5P2001   0.0000
    24 H4'         27.6127    18.5378    -6.0476 H            1 C5P2001   0.0000
    25 H3'         26.9591    20.1916    -8.3050 H            1 C5P2001   0.0000
    26 H5          25.4785    18.5924    -8.0640 H            1 C5P2001   0.0000
    27 H2'         26.3562    21.9231    -6.9388 H            1 C5P2001   0.0000
    28 H7          25.3992    21.7030    -5.1119 H            1 C5P2001   0.0000
    29 H1'         28.3560    21.7769    -5.4585 H            1 C5P2001   0.0000
    30 H9          31.5471    21.9047    -9.7053 H            1 C5P2001   0.0000
    31 H10         30.4144    20.5380    -8.2084 H            1 C5P2001   0.0000
    32 H11         32.6141    23.9803   -10.1302 H            1 C5P2001   0.0000
    33 H12         32.1084    25.3991    -9.2751 H            1 C5P2001   0.0000
@<TRIPOS>BOND
     1    1    2      ar
     2    2    3      ar
     3    2    4      ar
     4    2    5       1
     5    5    6       1
     6    6    7       1
     7    7    8       1
     8    7    9       1
     9    8   13       1
    10    9   10       1
    11    9   11       1
    12   11   12       1
    13   11   13       1
    14   13   14       1
    15   14   15       1
    16   14   19       1
    17   15   16       1
    18   15   20       2
    19   16   17       2
    20   17   18       1
    21   17   21       1
    22   18   19       2
    23   21   33       1
    24   21   32       1
    25    6   22       1
    26    6   23       1
    27    7   24       1
    28    9   25       1
    29   10   26       1
    30   11   27       1
    31   12   28       1
    32   13   29       1
    33   18   30       1
    34   19   31       1
@<TRIPOS>SUBSTRUCTURE
     1 C5P2001     1 GROUP             4 A     C5P     0 **** C5P A2001
