@<TRIPOS>MOLECULE
./coach420/1ri1/ligand.pdb
 57 58 0 0 0
SMALL
GASTEIGER

@<TRIPOS>ATOM
      1  N         13.2420   30.6330   91.6170 N.3   299  SAH299     -0.1208
      2  CA        14.2840   31.3540   92.4700 C.3   299  SAH299      0.1952
      3  CB        15.6130   31.6300   91.8730 C.3   299  SAH299      0.0422
      4  CG        16.4220   30.5080   91.3240 C.3   299  SAH299      0.0597
      5  SD        17.7410   31.2580   90.2860 S.3   299  SAH299     -0.1375
      6  C         13.6910   32.7350   92.9330 C.2   299  SAH299      0.3819
      7  O         12.5490   33.0660   92.5750 O.co2 299  SAH299     -0.2441
      8  OXT       14.4780   33.4500   93.6750 O.co2 299  SAH299     -0.2441
      9  C5'       17.9900   30.0060   89.1020 C.3   299  SAH299      0.0898
     10  C4'       18.1710   28.5910   89.8180 C.3   299  SAH299      0.1610
     11  O4'       18.3410   27.7040   88.7310 O.3   299  SAH299     -0.3323
     12  C3'       19.4160   28.3880   90.6640 C.3   299  SAH299      0.2144
     13  O3'       19.0560   28.1880   92.0350 O.3   299  SAH299     -0.2176
     14  C2'       20.0820   27.1330   89.9630 C.3   299  SAH299      0.2337
     15  O2'       20.7660   26.2910   90.8690 O.3   299  SAH299     -0.2155
     16  C1'       18.8900   26.4800   89.2900 C.3   299  SAH299      0.2409
     17  N9        19.1670   25.6020   88.3240 N.ar  299  SAH299     -0.2693
     18  C8        19.9590   25.6300   87.1890 C.ar  299  SAH299      0.1816
     19  N7        19.9540   24.5370   86.4930 N.ar  299  SAH299     -0.2193
     20  C5        19.0810   23.6660   87.2020 C.ar  299  SAH299      0.1518
     21  C6        18.6610   22.3050   86.9470 C.ar  299  SAH299      0.1919
     22  N6        19.0630   21.5690   85.8950 N.pl3 299  SAH299     -0.1054
     23  N1        17.7850   21.7970   87.8800 N.ar  299  SAH299     -0.2040
     24  C2        17.3490   22.4950   88.9650 C.ar  299  SAH299      0.2016
     25  N3        17.7290   23.7870   89.2370 N.ar  299  SAH299     -0.2048
     26  C4        18.5930   24.3030   88.3210 C.ar  299  SAH299      0.1692
     27  O1A       15.6370   35.3760   97.8960 O.3   300  GTG300      0.0000
     28  O2A       16.1720   36.9180   99.8180 O.3   300  GTG300      0.0000
     29  O3A       13.8330   36.9020   98.7930 O.2   300  GTG300     -0.2220
     30  PB        12.8740   37.0750  100.0750 P.3   300  GTG300      0.5404
     31  O1B       12.8000   35.7780  100.7870 O.3   300  GTG300     -0.1143
     32  O2B       13.3630   38.1720  100.9530 O.3   300  GTG300     -0.1143
     33  O3B       11.4100   37.4420   99.4660 O.3   300  GTG300     -0.1798
     34  N9A       16.1020   36.8580   92.1010 N.ar  300  GTG300     -0.2693
     35  C8A       16.8140   35.7420   92.5470 C.ar  300  GTG300      0.1817
     36  N7A       17.6200   35.2390   91.6560 N.ar  300  GTG300     -0.2173
     37  C5A       17.4620   36.0560   90.5480 C.ar  300  GTG300      0.1748
     38  C6A       18.0990   36.0110   89.2590 C.ar  300  GTG300      0.3023
     39  O6A       18.9290   35.2010   88.8270 O.2   300  GTG300     -0.2633
     40  N1A       17.6410   37.0350   88.3940 N.ar  300  GTG300     -0.1709
     41  C2A       16.6880   37.9940   88.7470 C.ar  300  GTG300      0.2606
     42  N2A       16.4060   38.8970   87.8030 N.pl3 300  GTG300     -0.0859
     43  N3A       16.1110   38.0670   89.9570 N.ar  300  GTG300     -0.1918
     44  C4A       16.5070   37.0430   90.7960 C.ar  300  GTG300      0.1723
     45  O5D       15.7370   37.9170   97.5140 O.3   300  GTG300     -0.2176
     46  C5D       16.3540   37.7390   96.2300 C.3   300  GTG300      0.2142
     47  C4D       15.2990   37.9290   95.1640 C.3   300  GTG300      0.1831
     48  O4D       15.9110   38.2280   93.8680 O.3   300  GTG300     -0.3305
     49  C3D       14.3990   36.6920   94.9230 C.3   300  GTG300      0.2162
     50  O3D       13.2690   36.6400   95.8150 O.3   300  GTG300     -0.2175
     51  C2D       14.0390   36.8110   93.4530 C.3   300  GTG300      0.2337
     52  O2D       12.8140   37.5540   93.3110 O.3   300  GTG300     -0.2155
     53  C1D       15.1740   37.5850   92.8050 C.3   300  GTG300      0.2409
     54  PG        10.0070   37.6030  100.2570 P.3   300  GTG300      0.5404
     55  O1G        9.7350   36.2970  100.9630 O.3   300  GTG300     -0.1143
     56  O2G       10.1420   38.7750  101.2050 O.3   300  GTG300     -0.1143
     57  O5E        8.8800   37.8860   99.2540 O.2   300  GTG300     -0.2220
@<TRIPOS>BOND
     1     1     2    1
     2     2     3    1
     3     2     6    1
     4     3     4    1
     5     4     5    1
     6     5     9    1
     7     6     7   ar
     8     6     8   ar
     9     9    10    1
    10    10    11    1
    11    10    12    1
    12    11    16    1
    13    12    14    1
    14    12    13    1
    15    14    16    1
    16    14    15    1
    17    16    17    1
    18    17    18   ar
    19    17    26   ar
    20    18    19   ar
    21    19    20   ar
    22    20    21   ar
    23    20    26   ar
    24    21    22    1
    25    21    23   ar
    26    23    24   ar
    27    24    25   ar
    28    25    26   ar
    29    29    30    2
    30    30    33    1
    31    30    31    1
    32    30    32    1
    33    33    54    1
    34    34    44   ar
    35    34    35   ar
    36    34    53    1
    37    35    36   ar
    38    36    37   ar
    39    37    38   ar
    40    37    44   ar
    41    38    40   ar
    42    38    39    2
    43    40    41   ar
    44    41    42    1
    45    41    43   ar
    46    43    44   ar
    47    45    46    1
    48    46    47    1
    49    47    48    1
    50    47    49    1
    51    48    53    1
    52    49    51    1
    53    49    50    1
    54    51    53    1
    55    51    52    1
    56    54    57    2
    57    54    55    1
    58    54    56    1
