@<TRIPOS>MOLECULE
2xau_ADP_1_ligand
   39    41     1     0     0
SMALL
NO_CHARGES


@<TRIPOS>ATOM
     1 PB          28.9010   100.9240    72.0070 P.3          1 ADP1750   0.0000
     2 O1B         28.4560    99.8560    70.9930 O.co2        1 ADP1750   0.0000
     3 O2B         28.4690   102.2900    71.6330 O.co2        1 ADP1750  -1.0000
     4 O3B         28.5490   100.6340    73.4510 O.co2        1 ADP1750  -1.0000
     5 PA          31.6280   100.5350    73.0280 P.3          1 ADP1750   0.0000
     6 O1A         31.6920   101.5970    74.0930 O.co2        1 ADP1750   0.0000
     7 O2A         31.3580    99.1000    73.2410 O.co2        1 ADP1750  -1.0000
     8 O3A         30.5210   101.1000    71.9820 O.3          1 ADP1750   0.0000
     9 O5'         32.9650   100.4610    72.0840 O.3          1 ADP1750   0.0000
    10 C5'         33.5940   101.6610    71.7550 C.3          1 ADP1750   0.0000
    11 C4'         34.8540   101.3130    70.9910 C.3          1 ADP1750   0.0000
    12 O4'         35.7650   100.6920    71.8830 O.3          1 ADP1750   0.0000
    13 C3'         34.6060   100.3290    69.8600 C.3          1 ADP1750   0.0000
    14 O3'         34.4570   101.0420    68.6010 O.3          1 ADP1750   0.0000
    15 C2'         35.8450    99.4920    69.8640 C.3          1 ADP1750   0.0000
    16 O2'         36.6730   100.2940    69.0650 O.3          1 ADP1750   0.0000
    17 C1'         36.4680    99.6550    71.2290 C.3          1 ADP1750   0.0000
    18 N9          36.2490    98.5200    72.1110 N.pl3        1 ADP1750   0.0000
    19 C8          35.0730    98.1830    72.5990 C.2          1 ADP1750   0.0000
    20 N7          35.1930    97.0890    73.3870 N.2          1 ADP1750   0.0000
    21 C5          36.4750    96.7710    73.3930 C.ar         1 ADP1750   0.0000
    22 C6          37.2470    95.7320    74.0280 C.ar         1 ADP1750   0.0000
    23 N6          36.5620    94.8590    74.8020 N.pl3        1 ADP1750   0.0000
    24 N1          38.5830    95.6690    73.8020 N.ar         1 ADP1750   0.0000
    25 C2          39.1670    96.5670    73.0200 C.ar         1 ADP1750   0.0000
    26 N3          38.5160    97.5540    72.4030 N.ar         1 ADP1750   0.0000
    27 C4          37.1750    97.6950    72.5430 C.ar         1 ADP1750   0.0000
    28 H5'1        33.8262   102.1651    72.5868 H            1 ADP1750   0.0000
    29 H5'2        32.9908   102.2186    71.1847 H            1 ADP1750   0.0000
    30 H4'         35.2632   102.1482    70.6235 H            1 ADP1750   0.0000
    31 H3'         33.7992    99.7689    70.0479 H            1 ADP1750   0.0000
    32 H5          33.6826   101.6715    68.6641 H            1 ADP1750   0.0000
    33 H2'         35.7288    98.5487    69.5532 H            1 ADP1750   0.0000
    34 H7          37.3224    99.7152    68.5718 H            1 ADP1750   0.0000
    35 H1'         37.4417    99.8711    71.1563 H            1 ADP1750   0.0000
    36 H9          34.2165    98.6650    72.4143 H            1 ADP1750   0.0000
    37 H10         37.0453    94.1175    75.2674 H            1 ADP1750   0.0000
    38 H11         35.5724    94.9552    74.9087 H            1 ADP1750   0.0000
    39 H12         40.1555    96.4999    72.8848 H            1 ADP1750   0.0000
@<TRIPOS>BOND
     1    1    2      ar
     2    1    3      ar
     3    1    4      ar
     4    1    8       1
     5    5    6      ar
     6    5    7      ar
     7    5    8       1
     8    5    9       1
     9    9   10       1
    10   10   11       1
    11   11   12       1
    12   11   13       1
    13   12   17       1
    14   13   14       1
    15   13   15       1
    16   15   16       1
    17   15   17       1
    18   17   18       1
    19   18   19       1
    20   18   27       1
    21   19   20       2
    22   20   21       1
    23   21   22      ar
    24   21   27      ar
    25   22   23       1
    26   22   24      ar
    27   24   25      ar
    28   25   26      ar
    29   26   27      ar
    30   25   39       1
    31   23   38       1
    32   23   37       1
    33   10   28       1
    34   10   29       1
    35   11   30       1
    36   13   31       1
    37   14   32       1
    38   15   33       1
    39   16   34       1
    40   17   35       1
    41   19   36       1
@<TRIPOS>SUBSTRUCTURE
     1 ADP1750     1 GROUP             4 A     ADP     0 **** ADP A1750
