@<TRIPOS>MOLECULE
./coach420/3du4/ligand.pdb
 53 48 0 0 0
SMALL
GASTEIGER

@<TRIPOS>ATOM
      1  N1         4.9750    6.2240   18.5160 N.ar  450  PLP450     -0.2452
      2  C2         4.5010    6.8070   17.3580 C.ar  450  PLP450      0.0978
      3  C2A        3.4080    6.1730   16.5600 C.3   450  PLP450      0.0555
      4  C3         5.0230    8.0110   16.9190 C.ar  450  PLP450      0.2049
      5  O3         4.5190    8.5570   15.7730 O.3   450  PLP450     -0.2857
      6  C4         6.0320    8.6570   17.6330 C.ar  450  PLP450      0.0182
      7  C4A        6.4370   10.0320   17.1980 C.3   450  PLP450      0.0342
      8  C5         6.5120    8.0700   18.8020 C.ar  450  PLP450      0.0261
      9  C6         5.9790    6.8550   19.2270 C.ar  450  PLP450      0.0965
     10  C5A        7.6260    8.6650   19.6380 C.3   450  PLP450      0.1815
     11  O4P        7.4080    9.9570   20.1460 O.3   450  PLP450     -0.2653
     12  P          8.7220   10.8150   20.5250 P.3   450  PLP450      0.5329
     13  O1P        9.5250   11.0090   19.2570 O.2   450  PLP450     -0.2224
     14  O2P        9.5960   10.0250   21.4640 O.3   450  PLP450     -0.1145
     15  O3P        8.2830   12.1360   21.0770 O.3   450  PLP450     -0.1145
     16  C         13.0120    9.5660   10.2570 C.2   451  KAP451      0.4661
     17  OI1       12.0750   10.3640   10.0130 O.co2 451  KAP451     -0.2331
     18  OI2       14.1230    9.6530    9.6880 O.co2 451  KAP451     -0.2331
     19  CB        11.8480    8.9820   12.3440 C.3   451  KAP451      0.0000
     20  CG        11.0400    7.9140   13.0930 C.3   451  KAP451      0.0004
     21  CD         9.6290    8.4590   13.3590 C.3   451  KAP451      0.0078
     22  CE         9.6240    9.9120   13.8610 C.3   451  KAP451      0.0660
     23  CZ         9.7160    9.8690   15.3760 C.2   451  KAP451      0.1679
     24  CH        10.6360   10.7070   16.2110 C.3   451  KAP451      0.1489
     25  CS        11.5620   11.6020   15.3990 C.3   451  KAP451      0.0285
     26  O          9.0210    9.0850   15.9830 O.2   451  KAP451     -0.2946
     27  N         11.4160    9.7860   17.0110 N.3   451  KAP451     -0.1250
     28  C2        19.1870   10.6300   37.8240 C.2   450  PLP450      0.0116
     29  C2A       20.4750   10.5120   38.5810 C.3   450  PLP450      0.0338
     30  C3        18.1720   11.4600   38.2770 C.2   450  PLP450      0.1686
     31  O3        18.3460   12.1870   39.4190 O.2   450  PLP450     -0.2917
     32  C4        16.9850   11.5760   37.5660 C.3   450  PLP450      0.0640
     33  C4A       16.1620   12.8210   37.7930 C.3   450  PLP450      0.0082
     34  C5        16.8280   10.8330   36.3890 C.3   450  PLP450      0.0375
     35  C6        17.8540   10.0080   35.9530 C.3   450  PLP450      0.0030
     36  C5A       15.5520   10.8530   35.5690 C.3   450  PLP450      0.1541
     37  O4P       15.2890   12.0780   34.9560 O.3   450  PLP450     -0.2702
     38  P         13.8040   12.4140   34.4570 P.3   450  PLP450      0.5326
     39  O1P       12.8740   12.5240   35.6390 O.3   450  PLP450     -0.1145
     40  O2P       13.3260   11.2640   33.6060 O.2   450  PLP450     -0.2224
     41  O3P       13.8040   13.7500   33.7450 O.3   450  PLP450     -0.1145
     42  C         10.0680   10.7870   45.1110 C.2   451  KAP451      0.4661
     43  OI1       10.2860   12.0260   45.1450 O.co2 451  KAP451     -0.2331
     44  OI2        9.0410   10.2430   45.5720 O.co2 451  KAP451     -0.2331
     45  CB        11.9700   10.7180   43.5580 C.3   451  KAP451      0.0000
     46  CG        13.0080    9.8220   42.9080 C.3   451  KAP451      0.0004
     47  CD        12.9710   10.0330   41.4100 C.3   451  KAP451      0.0078
     48  CE        13.0400   11.5180   41.0570 C.3   451  KAP451      0.0660
     49  CZ        13.1930   11.6040   39.5540 C.2   451  KAP451      0.1679
     50  CH        12.0810   11.9870   38.6200 C.3   451  KAP451      0.1489
     51  CS        11.0490   12.9150   39.2520 C.3   451  KAP451      0.0285
     52  O         14.2580   11.3290   39.0540 O.2   451  KAP451     -0.2946
     53  N         11.4820   10.7550   38.1580 N.3   451  KAP451     -0.1250
@<TRIPOS>BOND
     1     1     2   ar
     2     1     9   ar
     3     2     3    1
     4     2     4   ar
     5     4     5    1
     6     4     6   ar
     7     6     7    1
     8     6     8   ar
     9     8     9   ar
    10     8    10    1
    11    10    11    1
    12    11    12    1
    13    12    13    2
    14    12    15    1
    15    12    14    1
    16    16    18   ar
    17    16    17   ar
    18    19    20    1
    19    20    21    1
    20    21    22    1
    21    22    23    1
    22    23    26    2
    23    23    24    1
    24    24    25    1
    25    24    27    1
    26    28    30    2
    27    28    29    1
    28    30    32    1
    29    30    31    1
    30    32    34    1
    31    32    33    1
    32    34    36    1
    33    34    35    1
    34    36    37    1
    35    37    38    1
    36    38    40    2
    37    38    41    1
    38    38    39    1
    39    42    43   ar
    40    42    44   ar
    41    45    46    1
    42    46    47    1
    43    47    48    1
    44    48    49    1
    45    49    50    1
    46    49    52    2
    47    50    53    1
    48    50    51    1
