@<TRIPOS>MOLECULE
4kpu_FAD_2_ligand
   84    89     1     0     0
SMALL
NO_CHARGES


@<TRIPOS>ATOM
     1 PA          85.8970    52.7260    18.4420 P.3          1 FAD301   0.0000
     2 O1A         84.6180    52.1090    17.9740 O.co2        1 FAD301   0.0000
     3 O2A         86.6970    53.5050    17.4580 O.co2        1 FAD301  -1.0000
     4 O5B         86.8990    51.7040    19.1940 O.3          1 FAD301   0.0000
     5 C5B         87.3940    50.6260    18.4090 C.3          1 FAD301   0.0000
     6 C4B         88.4160    49.8640    19.1950 C.3          1 FAD301   0.0000
     7 O4B         89.5060    50.7190    19.5660 O.3          1 FAD301   0.0000
     8 C3B         87.9170    49.3720    20.5090 C.3          1 FAD301   0.0000
     9 O3B         87.0920    48.2120    20.4130 O.3          1 FAD301   0.0000
    10 C2B         89.2410    49.1520    21.2860 C.3          1 FAD301   0.0000
    11 O2B         89.8960    47.9460    20.8180 O.3          1 FAD301   0.0000
    12 C1B         90.0210    50.3640    20.8320 C.3          1 FAD301   0.0000
    13 N9A         89.8590    51.4770    21.7240 N.pl3        1 FAD301   0.0000
    14 C8A         89.0280    52.5720    21.6370 C.2          1 FAD301   0.0000
    15 N7A         89.0700    53.3530    22.6790 N.2          1 FAD301   0.0000
    16 C5A         89.9910    52.7820    23.5370 C.ar         1 FAD301   0.0000
    17 C6A         90.4790    53.1110    24.8300 C.ar         1 FAD301   0.0000
    18 N6A         90.0520    54.1820    25.4630 N.pl3        1 FAD301   0.0000
    19 N1A         91.4410    52.2990    25.3710 N.ar         1 FAD301   0.0000
    20 C2A         91.8100    51.1740    24.6510 C.ar         1 FAD301   0.0000
    21 N3A         91.4060    50.8170    23.4250 N.ar         1 FAD301   0.0000
    22 C4A         90.4620    51.6200    22.8580 C.ar         1 FAD301   0.0000
    23 N1          84.7810    60.6080    17.9650 N.2          1 FAD301   0.0000
    24 C2          84.9590    60.7450    16.6210 C.2          1 FAD301   0.0000
    25 O2          86.1370    60.8900    16.1570 O.2          1 FAD301   0.0000
    26 N3          83.9700    60.7260    15.7100 N.pl3        1 FAD301   0.0000
    27 C4          82.6570    60.5690    16.1140 C.2          1 FAD301   0.0000
    28 O4          81.7770    60.4790    15.2340 O.2          1 FAD301   0.0000
    29 C4X         82.4060    60.5740    17.5390 C.2          1 FAD301   0.0000
    30 N5          81.0690    60.4830    18.0230 N.2          1 FAD301   0.0000
    31 C5X         80.8590    60.4690    19.3430 C.ar         1 FAD301   0.0000
    32 C6          79.5900    60.5140    19.8520 C.ar         1 FAD301   0.0000
    33 C7          79.3190    60.5340    21.1690 C.ar         1 FAD301   0.0000
    34 C7M         77.8870    60.4540    21.7410 C.3          1 FAD301   0.0000
    35 C8          80.3990    60.5420    22.0820 C.ar         1 FAD301   0.0000
    36 C8M         80.1960    60.4850    23.5810 C.3          1 FAD301   0.0000
    37 C9          81.6750    60.4560    21.6050 C.ar         1 FAD301   0.0000
    38 C9A         81.9530    60.4570    20.2640 C.ar         1 FAD301   0.0000
    39 N10         83.2700    60.4260    19.7540 N.pl3        1 FAD301   0.0000
    40 C10         83.5220    60.5130    18.4120 C.2          1 FAD301   0.0000
    41 C1'         84.4280    60.2900    20.6480 C.3          1 FAD301   0.0000
    42 C2'         84.8320    58.7860    20.7600 C.3          1 FAD301   0.0000
    43 O2'         83.8680    57.9340    21.4110 O.3          1 FAD301   0.0000
    44 C3'         86.1530    58.6210    21.5890 C.3          1 FAD301   0.0000
    45 O3'         87.1720    59.2620    20.7710 O.3          1 FAD301   0.0000
    46 C4'         86.6030    57.2000    21.9020 C.3          1 FAD301   0.0000
    47 O4'         87.8090    57.2980    22.6950 O.3          1 FAD301   0.0000
    48 C5'         86.9910    56.3530    20.7260 C.3          1 FAD301   0.0000
    49 O5'         85.9690    56.1560    19.7300 O.3          1 FAD301   0.0000
    50 P           84.8840    54.9890    19.8840 P.3          1 FAD301   0.0000
    51 O1P         83.9460    55.1660    18.7320 O.co2        1 FAD301   0.0000
    52 O2P         84.3210    55.0790    21.2800 O.co2        1 FAD301  -1.0000
    53 O3P         85.6880    53.6350    19.6940 O.3          1 FAD301   0.0000
    54 H5B1        87.8144    50.9858    17.5761 H            1 FAD301   0.0000
    55 H5B2        86.6391    50.0171    18.1652 H            1 FAD301   0.0000
    56 H4B         88.7570    49.0960    18.6528 H            1 FAD301   0.0000
    57 H3B         87.3983    50.1027    20.9529 H            1 FAD301   0.0000
    58 H5          87.5066    47.4643    20.9317 H            1 FAD301   0.0000
    59 H2B         89.0999    49.1440    22.2760 H            1 FAD301   0.0000
    60 H7          90.4221    47.5408    21.5657 H            1 FAD301   0.0000
    61 H1B         90.9905    50.1326    20.7510 H            1 FAD301   0.0000
    62 H8A         88.4446    52.7515    20.8449 H            1 FAD301   0.0000
    63 H6A1        90.4057    54.3994    26.3728 H            1 FAD301   0.0000
    64 H6A2        89.3737    54.7789    25.0345 H            1 FAD301   0.0000
    65 H2A         92.4545    50.5552    25.1002 H            1 FAD301   0.0000
    66 H13         84.1846    60.8256    14.7384 H            1 FAD301   0.0000
    67 H14         78.8231    60.5330    19.2105 H            1 FAD301   0.0000
    68 H7M1        77.9248    60.4856    22.7398 H            1 FAD301   0.0000
    69 H7M2        77.3495    61.2266    21.4032 H            1 FAD301   0.0000
    70 H7M3        77.4594    59.5980    21.4505 H            1 FAD301   0.0000
    71 H8M1        81.0850    60.5013    24.0386 H            1 FAD301   0.0000
    72 H8M2        79.6555    61.2735    23.8744 H            1 FAD301   0.0000
    73 H8M3        79.7134    59.6425    23.8202 H            1 FAD301   0.0000
    74 H21         82.4314    60.3901    22.2558 H            1 FAD301   0.0000
    75 H1'1        84.1909    60.6390    21.5546 H            1 FAD301   0.0000
    76 H1'2        85.1959    60.8140    20.2795 H            1 FAD301   0.0000
    77 H2'         84.9924    58.4333    19.8381 H            1 FAD301   0.0000
    78 H25         84.2142    56.9961    21.4344 H            1 FAD301   0.0000
    79 H3'         86.0616    59.1272    22.4466 H            1 FAD301   0.0000
    80 H27         87.2364    60.2293    21.0162 H            1 FAD301   0.0000
    81 H4'         85.8932    56.7335    22.4298 H            1 FAD301   0.0000
    82 H29         88.5118    57.7829    22.1744 H            1 FAD301   0.0000
    83 H5'1        87.2602    55.4539    21.0711 H            1 FAD301   0.0000
    84 H5'2        87.7739    56.7871    20.2804 H            1 FAD301   0.0000
@<TRIPOS>BOND
     1    1    2      ar
     2    1    3      ar
     3    1    4       1
     4    1   53       1
     5    4    5       1
     6    5    6       1
     7    6    7       1
     8    6    8       1
     9    7   12       1
    10    8    9       1
    11    8   10       1
    12   10   11       1
    13   10   12       1
    14   12   13       1
    15   13   14       1
    16   13   22       1
    17   14   15       2
    18   15   16       1
    19   16   17      ar
    20   16   22      ar
    21   17   18       1
    22   17   19      ar
    23   19   20      ar
    24   20   21      ar
    25   21   22      ar
    26   23   24       1
    27   23   40       2
    28   24   25       2
    29   24   26       1
    30   26   27       1
    31   27   28       2
    32   27   29       1
    33   29   30       2
    34   29   40       1
    35   30   31       1
    36   31   32      ar
    37   31   38      ar
    38   32   33      ar
    39   33   34       1
    40   33   35      ar
    41   35   36       1
    42   35   37      ar
    43   37   38      ar
    44   38   39       1
    45   39   40       1
    46   39   41       1
    47   41   42       1
    48   42   43       1
    49   42   44       1
    50   44   45       1
    51   44   46       1
    52   46   47       1
    53   46   48       1
    54   48   49       1
    55   49   50       1
    56   50   51      ar
    57   50   52      ar
    58   50   53       1
    59   48   84       1
    60    5   54       1
    61    5   55       1
    62    6   56       1
    63    8   57       1
    64    9   58       1
    65   10   59       1
    66   11   60       1
    67   12   61       1
    68   14   62       1
    69   18   63       1
    70   18   64       1
    71   20   65       1
    72   26   66       1
    73   32   67       1
    74   34   68       1
    75   34   69       1
    76   34   70       1
    77   36   71       1
    78   36   72       1
    79   36   73       1
    80   37   74       1
    81   41   75       1
    82   41   76       1
    83   42   77       1
    84   43   78       1
    85   44   79       1
    86   45   80       1
    87   46   81       1
    88   47   82       1
    89   48   83       1
@<TRIPOS>SUBSTRUCTURE
     1 FAD301      1 GROUP             4 B     FAD     0 **** FAD B 301
