@<TRIPOS>MOLECULE
1vg8_GNP_2_ligand
   45    47     1     0     0
SMALL
NO_CHARGES


@<TRIPOS>ATOM
     1 PG          30.0900    23.9610    40.8810 P.3          1 GNP2400   0.0000
     2 O1G         29.0370    23.1250    41.5920 O.co2        1 GNP2400   0.0000
     3 O2G         30.1840    25.3930    41.3740 O.co2        1 GNP2400  -1.0000
     4 O3G         29.8530    23.8630    39.4080 O.co2        1 GNP2400  -1.0000
     5 N3B         31.5560    23.1270    41.3330 N.3          1 GNP2400   0.0000
     6 PB          33.0850    23.6950    40.8550 P.3          1 GNP2400   0.0000
     7 O1B         33.4580    23.1090    39.5590 O.co2        1 GNP2400   0.0000
     8 O2B         33.0950    25.1370    40.9950 O.co2        1 GNP2400  -1.0000
     9 O3A         34.0050    23.0500    42.0320 O.3          1 GNP2400   0.0000
    10 PA          34.6810    23.7490    43.2500 P.3          1 GNP2400   0.0000
    11 O1A         35.8140    24.7190    42.9270 O.co2        1 GNP2400   0.0000
    12 O2A         33.5550    24.2580    44.1130 O.co2        1 GNP2400  -1.0000
    13 O5'         35.3470    22.5240    43.9670 O.3          1 GNP2400   0.0000
    14 C5'         34.5570    21.3600    44.3950 C.3          1 GNP2400   0.0000
    15 C4'         35.3380    20.6220    45.4750 C.3          1 GNP2400   0.0000
    16 O4'         36.5670    20.0980    45.0290 O.3          1 GNP2400   0.0000
    17 C3'         35.7030    21.5770    46.6670 C.3          1 GNP2400   0.0000
    18 O3'         35.5960    20.8560    47.9410 O.3          1 GNP2400   0.0000
    19 C2'         37.1630    21.9410    46.4230 C.3          1 GNP2400   0.0000
    20 O2'         37.8350    22.1950    47.6200 O.3          1 GNP2400   0.0000
    21 C1'         37.6530    20.6740    45.7630 C.3          1 GNP2400   0.0000
    22 N9          38.7380    20.9580    44.8210 N.pl3        1 GNP2400   0.0000
    23 C8          38.6870    21.9470    43.7520 C.2          1 GNP2400   0.0000
    24 N7          39.8270    21.9500    43.0620 N.2          1 GNP2400   0.0000
    25 C5          40.6470    20.9190    43.7100 C.2          1 GNP2400   0.0000
    26 C6          41.9710    20.4820    43.3910 C.2          1 GNP2400   0.0000
    27 O6          42.6810    20.8580    42.5170 O.2          1 GNP2400   0.0000
    28 N1          42.3910    19.4740    44.2860 N.pl3        1 GNP2400   0.0000
    29 C2          41.5430    19.0420    45.2860 C.2          1 GNP2400   0.0000
    30 N2          42.1600    17.9950    46.1100 N.pl3        1 GNP2400   0.0000
    31 N3          40.3420    19.3850    45.6190 N.2          1 GNP2400   0.0000
    32 C4          39.9480    20.3650    44.7580 C.2          1 GNP2400   0.0000
    33 H3B         31.5663    23.0964    42.3325 H            1 GNP2400   0.0000
    34 H5'1        34.4007    20.7526    43.6161 H            1 GNP2400   0.0000
    35 H5'2        33.6780    21.6645    44.7619 H            1 GNP2400   0.0000
    36 H4'         34.7757    19.8722    45.8236 H            1 GNP2400   0.0000
    37 H3'         35.1238    22.3922    46.6652 H            1 GNP2400   0.0000
    38 H6          35.8301    21.4719    48.6932 H            1 GNP2400   0.0000
    39 H2'         37.2373    22.7196    45.7999 H            1 GNP2400   0.0000
    40 H8          37.7584    23.1662    47.8457 H            1 GNP2400   0.0000
    41 H1'         37.9696    20.0303    46.4597 H            1 GNP2400   0.0000
    42 H10         37.9051    22.5409    43.5625 H            1 GNP2400   0.0000
    43 H11         43.3026    19.0731    44.1955 H            1 GNP2400   0.0000
    44 H12         41.6515    17.5937    46.8718 H            1 GNP2400   0.0000
    45 H13         43.0887    17.6832    45.9094 H            1 GNP2400   0.0000
@<TRIPOS>BOND
     1    1    2      ar
     2    1    3      ar
     3    1    4      ar
     4    1    5       1
     5    5    6       1
     6    6    7      ar
     7    6    8      ar
     8    6    9       1
     9    9   10       1
    10   10   11      ar
    11   10   12      ar
    12   10   13       1
    13   13   14       1
    14   14   15       1
    15   15   16       1
    16   15   17       1
    17   16   21       1
    18   17   18       1
    19   17   19       1
    20   19   20       1
    21   19   21       1
    22   21   22       1
    23   22   23       1
    24   22   32       1
    25   23   24       2
    26   24   25       1
    27   25   26       1
    28   25   32       2
    29   26   27       2
    30   26   28       1
    31   28   29       1
    32   29   30       1
    33   29   31       2
    34   31   32       1
    35   30   45       1
    36   30   44       1
    37    5   33       1
    38   28   43       1
    39   23   42       1
    40   14   34       1
    41   14   35       1
    42   15   36       1
    43   17   37       1
    44   18   38       1
    45   19   39       1
    46   20   40       1
    47   21   41       1
@<TRIPOS>SUBSTRUCTURE
     1 GNP2400     1 GROUP             4 B     GNP     0 **** GNP B2400
