@<TRIPOS>MOLECULE
3glm_COO_4_ligand
   89    91     1     0     0
SMALL
NO_CHARGES


@<TRIPOS>ATOM
     1 C13        -30.3700     9.1660    15.8690 C.3          1 COO590   0.0000
     2 C11        -29.2460     8.9490    14.8370 C.3          1 COO590   0.0000
     3 C14        -28.6830    10.2480    14.2480 C.3          1 COO590   0.0000
     4 C12        -29.7250     8.0930    13.6680 C.3          1 COO590   0.0000
     5 O6A        -30.6450     8.8310    12.8630 O.3          1 COO590   0.0000
     6 P2A        -31.0650     8.3680    11.3830 P.3          1 COO590   0.0000
     7 O4A        -31.8000     9.5250    10.7570 O.co2        1 COO590   0.0000
     8 O5A        -29.8250     7.8190    10.7170 O.co2        1 COO590  -1.0000
     9 O3A        -32.1610     7.1940    11.5970 O.3          1 COO590   0.0000
    10 P1A        -31.8540     5.6050    11.7710 P.3          1 COO590   0.0000
    11 O2A        -32.7580     4.7980    10.8750 O.co2        1 COO590   0.0000
    12 O1A        -30.3650     5.3790    11.7080 O.co2        1 COO590  -1.0000
    13 O5X        -32.3700     5.3470    13.2800 O.3          1 COO590   0.0000
    14 C5X        -33.0180     6.4020    13.9820 C.3          1 COO590   0.0000
    15 C4X        -34.0890     5.8090    14.8670 C.3          1 COO590   0.0000
    16 O4X        -33.5250     4.7840    15.6900 O.3          1 COO590   0.0000
    17 C3X        -34.5960     6.8510    15.8470 C.3          1 COO590   0.0000
    18 O3X        -35.6510     7.6850    15.3530 O.3          1 COO590   0.0000
    19 P3X        -35.5400     9.2940    15.5790 P.3          1 COO590   0.0000
    20 O9A        -36.8170     9.8640    15.0030 O.co2        1 COO590   0.0000
    21 O7A        -34.2890     9.7170    14.8280 O.co2        1 COO590  -1.0000
    22 O8A        -35.4360     9.4290    17.0840 O.co2        1 COO590  -1.0000
    23 C2X        -34.9920     6.0260    17.0420 C.3          1 COO590   0.0000
    24 O2X        -36.2360     5.3620    16.7920 O.3          1 COO590   0.0000
    25 C1X        -33.8980     4.9750    17.0650 C.3          1 COO590   0.0000
    26 N9A        -32.7520     5.4440    17.9110 N.pl3        1 COO590   0.0000
    27 C8A        -31.6520     6.0930    17.4880 C.2          1 COO590   0.0000
    28 N7A        -30.8430     6.3570    18.5390 N.2          1 COO590   0.0000
    29 C5A        -31.4380     5.8660    19.6450 C.ar         1 COO590   0.0000
    30 C4A        -32.6380     5.2920    19.2420 C.ar         1 COO590   0.0000
    31 N3A        -33.4390     4.7190    20.1830 N.ar         1 COO590   0.0000
    32 C2A        -33.0890     4.6980    21.4780 C.ar         1 COO590   0.0000
    33 N1A        -31.9350     5.2440    21.8810 N.ar         1 COO590   0.0000
    34 C6A        -31.0940     5.8260    20.9970 C.ar         1 COO590   0.0000
    35 N6A        -29.9380     6.3610    21.4470 N.pl3        1 COO590   0.0000
    36 O1         -31.5910     9.5710    15.2560 O.3          1 COO590   0.0000
    37 C1         -30.0330    10.1550    16.9600 C.2          1 COO590   0.0000
    38 O2         -29.6870    11.3080    16.7250 O.2          1 COO590   0.0000
    39 N1         -30.1550     9.6680    18.1900 N.am         1 COO590   0.0000
    40 C2         -29.9030    10.3170    19.4600 C.3          1 COO590   0.0000
    41 C3         -28.7320     9.4900    19.9700 C.3          1 COO590   0.0000
    42 C4         -28.0890    10.1290    21.1750 C.2          1 COO590   0.0000
    43 O3         -28.1480    11.3350    21.3780 O.2          1 COO590   0.0000
    44 N2         -27.4570     9.2820    21.9800 N.am         1 COO590   0.0000
    45 C5         -26.7550     9.6280    23.1980 C.3          1 COO590   0.0000
    46 C6         -27.1500     8.5720    24.2140 C.3          1 COO590   0.0000
    47 S1         -26.1860     8.9130    25.6410 S.3          1 COO590   0.0000
    48 C7         -24.8880     7.8730    25.7770 C.2          1 COO590   0.0000
    49 O4         -24.5590     7.1390    24.8570 O.2          1 COO590   0.0000
    50 C8         -24.1460     7.8810    27.0500 C.2          1 COO590   0.0000
    51 C9         -22.8840     7.4880    27.1350 C.2          1 COO590   0.0000
    52 C10        -22.1940     7.5300    28.4720 C.3          1 COO590   0.0000
    53 C15        -28.1420     8.1570    15.5180 C.3          1 COO590   0.0000
    54 H1         -30.5393     8.2851    16.3109 H            1 COO590   0.0000
    55 H2         -27.9620    10.0307    13.5900 H            1 COO590   0.0000
    56 H3         -29.4149    10.7496    13.7869 H            1 COO590   0.0000
    57 H4         -28.3049    10.8109    14.9830 H            1 COO590   0.0000
    58 H5         -30.1777     7.2744    14.0214 H            1 COO590   0.0000
    59 H6         -28.9392     7.8250    13.1107 H            1 COO590   0.0000
    60 H5X1       -33.4336     7.0351    13.3290 H            1 COO590   0.0000
    61 H5X2       -32.3511     6.8921    14.5432 H            1 COO590   0.0000
    62 H4X        -34.8410     5.4462    14.3167 H            1 COO590   0.0000
    63 H3X        -33.8287     7.4363    16.1090 H            1 COO590   0.0000
    64 H2X        -35.0146     6.5662    17.8832 H            1 COO590   0.0000
    65 H12        -36.9109     5.6520    17.4705 H            1 COO590   0.0000
    66 H1X        -34.2613     4.1204    17.4360 H            1 COO590   0.0000
    67 H8A        -31.4612     6.3427    16.5387 H            1 COO590   0.0000
    68 H2A        -33.6956     4.2706    22.1483 H            1 COO590   0.0000
    69 H6A1       -29.7137     6.3199    22.4206 H            1 COO590   0.0000
    70 H6A2       -29.3066     6.7981    20.8065 H            1 COO590   0.0000
    71 H18        -31.4630     9.6314    14.2661 H            1 COO590   0.0000
    72 H19        -30.4647     8.7189    18.2470 H            1 COO590   0.0000
    73 H20        -30.6929    10.2531    20.0699 H            1 COO590   0.0000
    74 H21        -29.6515    11.2774    19.3398 H            1 COO590   0.0000
    75 H22        -28.0505     9.4083    19.2428 H            1 COO590   0.0000
    76 H23        -29.0617     8.5801    20.2216 H            1 COO590   0.0000
    77 H24        -27.4671     8.3163    21.7207 H            1 COO590   0.0000
    78 H25        -27.0310    10.5359    23.5136 H            1 COO590   0.0000
    79 H26        -25.7666     9.6138    23.0468 H            1 COO590   0.0000
    80 H27        -26.9465     7.6573    23.8648 H            1 COO590   0.0000
    81 H28        -28.1249     8.6384    24.4265 H            1 COO590   0.0000
    82 H29        -24.6112     8.1938    27.8781 H            1 COO590   0.0000
    83 H30        -22.3966     7.1680    26.3226 H            1 COO590   0.0000
    84 H31        -21.2537     7.2047    28.3722 H            1 COO590   0.0000
    85 H32        -22.1871     8.4696    28.8142 H            1 COO590   0.0000
    86 H33        -22.6828     6.9436    29.1179 H            1 COO590   0.0000
    87 H34        -27.3962     8.0003    14.8706 H            1 COO590   0.0000
    88 H35        -27.7987     8.6715    16.3038 H            1 COO590   0.0000
    89 H36        -28.5047     7.2781    15.8278 H            1 COO590   0.0000
@<TRIPOS>BOND
     1    1    2       1
     2    1   36       1
     3    1   37       1
     4    2    3       1
     5    2    4       1
     6    2   53       1
     7    4    5       1
     8    5    6       1
     9    6    7      ar
    10    6    8      ar
    11    6    9       1
    12    9   10       1
    13   10   11      ar
    14   10   12      ar
    15   10   13       1
    16   13   14       1
    17   14   15       1
    18   15   16       1
    19   15   17       1
    20   16   25       1
    21   17   18       1
    22   17   23       1
    23   18   19       1
    24   19   20      ar
    25   19   21      ar
    26   19   22      ar
    27   23   24       1
    28   23   25       1
    29   25   26       1
    30   26   27       1
    31   26   30       1
    32   27   28       2
    33   28   29       1
    34   29   30      ar
    35   29   34      ar
    36   30   31      ar
    37   31   32      ar
    38   32   33      ar
    39   33   34      ar
    40   34   35       1
    41   37   38       2
    42   37   39      am
    43   39   40       1
    44   40   41       1
    45   41   42       1
    46   42   43       2
    47   42   44      am
    48   44   45       1
    49   45   46       1
    50   46   47       1
    51   47   48       1
    52   48   49       2
    53   48   50       1
    54   50   51       2
    55   51   52       1
    56    1   54       1
    57    3   55       1
    58    3   56       1
    59    3   57       1
    60    4   58       1
    61    4   59       1
    62   53   89       1
    63   53   88       1
    64   14   60       1
    65   14   61       1
    66   15   62       1
    67   17   63       1
    68   53   87       1
    69   52   86       1
    70   23   64       1
    71   24   65       1
    72   25   66       1
    73   27   67       1
    74   32   68       1
    75   35   69       1
    76   35   70       1
    77   36   71       1
    78   39   72       1
    79   40   73       1
    80   40   74       1
    81   41   75       1
    82   41   76       1
    83   44   77       1
    84   45   78       1
    85   45   79       1
    86   46   80       1
    87   46   81       1
    88   50   82       1
    89   51   83       1
    90   52   84       1
    91   52   85       1
@<TRIPOS>SUBSTRUCTURE
     1 COO590      1 GROUP             4 D     COO     0 **** COO D 590
