@<TRIPOS>MOLECULE
4c7x_TPP_1_ligand
   42    43     1     0     0
SMALL
NO_CHARGES


@<TRIPOS>ATOM
     1 O1B         17.9560    43.6980   -17.6180 O.co2        1 TPP701   0.0000
     2 PB          18.3600    45.0270   -18.1280 P.3          1 TPP701   0.0000
     3 O2B         17.3250    46.0680   -18.3400 O.co2        1 TPP701  -1.0000
     4 O3B         19.5910    45.1730   -18.9000 O.co2        1 TPP701  -1.0000
     5 O3A         18.8910    45.5420   -16.6540 O.3          1 TPP701   0.0000
     6 PA          19.6910    44.7350   -15.5200 P.3          1 TPP701   0.0000
     7 O1A         19.4420    45.3840   -14.2370 O.co2        1 TPP701   0.0000
     8 O2A         19.5090    43.2560   -15.5920 O.co2        1 TPP701  -1.0000
     9 O7          21.2700    45.0490   -16.0270 O.3          1 TPP701   0.0000
    10 C7          21.8650    45.7840   -14.9110 C.3          1 TPP701   0.0000
    11 C6          23.1850    46.3710   -15.2660 C.3          1 TPP701   0.0000
    12 C5          23.2700    47.8760   -15.1760 C.2          1 TPP701   0.0000
    13 C4          24.3840    48.5240   -14.9040 C.2          1 TPP701   0.0000
    14 CM4         25.6570    47.8020   -14.5550 C.3          1 TPP701   0.0000
    15 S1          21.9860    49.0660   -15.4420 S.3          1 TPP701   0.0000
    16 C2          23.0880    50.3590   -15.1710 C.2          1 TPP701   0.0000
    17 N3          24.2940    49.8700   -14.8630 N.2          1 TPP701   1.0000
    18 C7'         25.4190    50.7900   -14.4470 C.3          1 TPP701   0.0000
    19 C5'         25.4230    50.8030   -12.9560 C.ar         1 TPP701   0.0000
    20 C6'         26.4220    50.1530   -12.1950 C.ar         1 TPP701   0.0000
    21 N1'         26.4070    50.2190   -10.7660 N.ar         1 TPP701   0.0000
    22 C2'         25.4300    50.9200   -10.1230 C.ar         1 TPP701   0.0000
    23 CM2         25.4090    51.0100    -8.7520 C.3          1 TPP701   0.0000
    24 N3'         24.4710    51.5680   -10.7840 N.ar         1 TPP701   0.0000
    25 C4'         24.4430    51.4900   -12.1330 C.ar         1 TPP701   0.0000
    26 N4'         23.4710    52.1560   -12.7430 N.pl3        1 TPP701   0.0000
    27 H1          21.9875    45.1574   -14.1413 H            1 TPP701   0.0000
    28 H2          21.2453    46.5222   -14.6445 H            1 TPP701   0.0000
    29 H3          23.3977    46.1057   -16.2064 H            1 TPP701   0.0000
    30 H4          23.8702    45.9858   -14.6479 H            1 TPP701   0.0000
    31 HM41        26.3824    48.4689   -14.3843 H            1 TPP701   0.0000
    32 HM42        25.5125    47.2493   -13.7343 H            1 TPP701   0.0000
    33 HM43        25.9223    47.2080   -15.3145 H            1 TPP701   0.0000
    34 H8          22.8608    51.3308   -15.2343 H            1 TPP701   0.0000
    35 H7'1        25.2604    51.7119   -14.8004 H            1 TPP701   0.0000
    36 H7'2        26.2924    50.4463   -14.7922 H            1 TPP701   0.0000
    37 H6'         27.1455    49.6426   -12.6599 H            1 TPP701   0.0000
    38 HM21        24.6245    51.5602    -8.4660 H            1 TPP701   0.0000
    39 HM22        25.3344    50.0935    -8.3589 H            1 TPP701   0.0000
    40 HM23        26.2528    51.4418    -8.4333 H            1 TPP701   0.0000
    41 H4'1        22.7812    52.6392   -12.2038 H            1 TPP701   0.0000
    42 H4'2        23.4283    52.1748   -13.7419 H            1 TPP701   0.0000
@<TRIPOS>BOND
     1    1    2      ar
     2    2    3      ar
     3    2    4      ar
     4    2    5       1
     5    5    6       1
     6    6    7      ar
     7    6    8      ar
     8    6    9       1
     9    9   10       1
    10   10   11       1
    11   11   12       1
    12   12   13       2
    13   12   15       1
    14   13   14       1
    15   13   17       1
    16   15   16       1
    17   16   17       2
    18   17   18       1
    19   18   19       1
    20   19   20      ar
    21   19   25      ar
    22   20   21      ar
    23   21   22      ar
    24   22   23       1
    25   22   24      ar
    26   24   25      ar
    27   25   26       1
    28   26   42       1
    29   26   41       1
    30   23   40       1
    31   10   27       1
    32   10   28       1
    33   11   29       1
    34   11   30       1
    35   14   31       1
    36   14   32       1
    37   14   33       1
    38   16   34       1
    39   18   35       1
    40   18   36       1
    41   20   37       1
    42   23   38       1
    43   23   39       1
@<TRIPOS>SUBSTRUCTURE
     1 TPP701      1 GROUP             4 A     TPP     0 **** TPP A 701
