@<TRIPOS>MOLECULE
2i0d_MUT_1_ligand
   84    87     1     0     0
SMALL
NO_CHARGES


@<TRIPOS>ATOM
     1 O9          18.4710    33.3790    13.7330 O.2          1 MUT200   0.0000
     2 S8          17.9420    32.5070    14.7630 S.o2         1 MUT200   0.0000
     3 O10         17.1760    31.4470    14.1620 O.2          1 MUT200   0.0000
     4 C5          17.0350    33.3960    15.7810 C.ar         1 MUT200   0.0000
     5 C4          17.2940    34.7620    15.9630 C.ar         1 MUT200   0.0000
     6 C3          16.5620    35.5430    16.8590 C.ar         1 MUT200   0.0000
     7 C2          15.5670    34.9440    17.6510 C.ar         1 MUT200   0.0000
     8 O19         14.8560    35.6510    18.5860 O.3          1 MUT200   0.0000
     9 C18         15.0380    37.0550    18.7950 C.3          1 MUT200   0.0000
    10 C7          15.3200    33.5790    17.5070 C.ar         1 MUT200   0.0000
    11 C6          16.0550    32.8130    16.5880 C.ar         1 MUT200   0.0000
    12 N11         19.2180    31.8380    15.4990 N.3          1 MUT200   0.0000
    13 C12         19.9880    32.7990    16.3320 C.3          1 MUT200   0.0000
    14 C13         21.4740    32.4330    16.3210 C.3          1 MUT200   0.0000
    15 C14         22.0630    32.3930    14.9120 C.3          1 MUT200   0.0000
    16 C15         22.2990    33.3860    17.1770 C.3          1 MUT200   0.0000
    17 C16         18.9360    30.5520    16.1620 C.3          1 MUT200   0.0000
    18 C17         19.8300    29.4520    15.5710 C.3          1 MUT200   0.0000
    19 O18         19.7600    28.2940    16.4230 O.3          1 MUT200   0.0000
    20 C19         19.3950    29.1670    14.1200 C.3          1 MUT200   0.0000
    21 C32         18.0560    28.4150    14.0070 C.3          1 MUT200   0.0000
    22 C38         17.7680    28.0790    12.5480 C.ar         1 MUT200   0.0000
    23 C33         17.9540    26.7850    12.0510 C.ar         1 MUT200   0.0000
    24 C34         17.7220    26.4830    10.7180 C.ar         1 MUT200   0.0000
    25 C35         17.2760    27.4740     9.8470 C.ar         1 MUT200   0.0000
    26 C36         17.0940    28.7610    10.3340 C.ar         1 MUT200   0.0000
    27 C37         17.3350    29.0660    11.6750 C.ar         1 MUT200   0.0000
    28 N20         20.3400    28.3000    13.3950 N.am         1 MUT200   0.0000
    29 C21         21.0390    28.7550    12.3510 C.2          1 MUT200   0.0000
    30 O22         21.0420    29.9310    12.0260 O.2          1 MUT200   0.0000
    31 C29         21.8480    27.7840    11.5280 C.3          1 MUT200   0.0000
    32 O28         21.8360    26.4690    12.0840 O.3          1 MUT200   0.0000
    33 C26         21.4580    25.5680    11.0160 C.2          1 MUT200   0.0000
    34 O27         21.5270    24.3660    11.2130 O.2          1 MUT200   0.0000
    35 C25         21.2060    27.6880    10.1210 C.3          1 MUT200   0.0000
    36 N24         21.1320    26.2450     9.9100 N.am         1 MUT200   0.0000
    37 C43         20.7790    25.6650     8.6590 C.ar         1 MUT200   0.0000
    38 C44         21.2180    24.3930     8.2840 C.ar         1 MUT200   0.0000
    39 C45         20.8490    23.8240     7.0610 C.ar         1 MUT200   0.0000
    40 C40         20.0400    24.5230     6.1780 C.ar         1 MUT200   0.0000
    41 C42         19.9680    26.3580     7.7500 C.ar         1 MUT200   0.0000
    42 C41         19.5970    25.7990     6.5280 C.ar         1 MUT200   0.0000
    43 C46         18.6970    26.5940     5.5760 C.2          1 MUT200   0.0000
    44 O45         18.3090    27.7060     5.9080 O.2          1 MUT200   0.0000
    45 C47         18.2950    25.9900     4.2650 C.3          1 MUT200   0.0000
    46 H1          18.0265    35.1904    15.4340 H            1 MUT200   0.0000
    47 H2          16.7444    36.5231    16.9370 H            1 MUT200   0.0000
    48 H3          14.4228    37.3667    19.5191 H            1 MUT200   0.0000
    49 H4          15.9850    37.2321    19.0630 H            1 MUT200   0.0000
    50 H5          14.8334    37.5472    17.9489 H            1 MUT200   0.0000
    51 H6          14.6132    33.1419    18.0632 H            1 MUT200   0.0000
    52 H7          15.8737    31.8327    16.5098 H            1 MUT200   0.0000
    53 H8          19.6471    32.7691    17.2716 H            1 MUT200   0.0000
    54 H9          19.8721    33.7218    15.9646 H            1 MUT200   0.0000
    55 H10         21.5639    31.5176    16.7135 H            1 MUT200   0.0000
    56 H11         23.0317    32.1501    14.9624 H            1 MUT200   0.0000
    57 H12         21.5762    31.7107    14.3665 H            1 MUT200   0.0000
    58 H13         21.9666    33.2920    14.4848 H            1 MUT200   0.0000
    59 H14         23.2611    33.1152    17.1446 H            1 MUT200   0.0000
    60 H15         22.2029    34.3174    16.8260 H            1 MUT200   0.0000
    61 H16         21.9745    33.3509    18.1222 H            1 MUT200   0.0000
    62 H17         17.9759    30.3101    16.0215 H            1 MUT200   0.0000
    63 H18         19.1185    30.6369    17.1415 H            1 MUT200   0.0000
    64 H19         20.7740    29.7817    15.5604 H            1 MUT200   0.0000
    65 H20         18.8636    28.2590    16.8649 H            1 MUT200   0.0000
    66 H21         19.3173    30.0361    13.6316 H            1 MUT200   0.0000
    67 H22         17.3214    28.9911    14.3654 H            1 MUT200   0.0000
    68 H23         18.1054    27.5691    14.5381 H            1 MUT200   0.0000
    69 H24         18.2608    26.0623    12.6703 H            1 MUT200   0.0000
    70 H25         17.8749    25.5537    10.3819 H            1 MUT200   0.0000
    71 H26         17.0901    27.2621     8.8876 H            1 MUT200   0.0000
    72 H27         16.7850    29.4820     9.7138 H            1 MUT200   0.0000
    73 H28         17.1950    29.9988    12.0070 H            1 MUT200   0.0000
    74 H29         20.4607    27.3522    13.6900 H            1 MUT200   0.0000
    75 H30         22.7901    28.1098    11.4490 H            1 MUT200   0.0000
    76 H31         21.7811    28.1259     9.4300 H            1 MUT200   0.0000
    77 H32         20.2962    28.1028    10.1091 H            1 MUT200   0.0000
    78 H33         21.8095    23.8776     8.9041 H            1 MUT200   0.0000
    79 H34         21.1704    22.9078     6.8219 H            1 MUT200   0.0000
    80 H35         19.7776    24.1180     5.3021 H            1 MUT200   0.0000
    81 H36         19.6476    27.2760     7.9837 H            1 MUT200   0.0000
    82 H37         17.7125    26.6322     3.7668 H            1 MUT200   0.0000
    83 H38         19.1127    25.7930     3.7241 H            1 MUT200   0.0000
    84 H39         17.7915    25.1417     4.4292 H            1 MUT200   0.0000
@<TRIPOS>BOND
     1    1    2       2
     2    2    3       2
     3    2    4       1
     4    2   12       1
     5    4    5      ar
     6    4   11      ar
     7    5    6      ar
     8    6    7      ar
     9    7    8       1
    10    7   10      ar
    11    8    9       1
    12   10   11      ar
    13   12   13       1
    14   12   17       1
    15   13   14       1
    16   14   15       1
    17   14   16       1
    18   17   18       1
    19   18   19       1
    20   18   20       1
    21   20   21       1
    22   20   28       1
    23   21   22       1
    24   22   23      ar
    25   22   27      ar
    26   23   24      ar
    27   24   25      ar
    28   25   26      ar
    29   26   27      ar
    30   28   29      am
    31   29   30       2
    32   29   31       1
    33   31   32       1
    34   31   35       1
    35   32   33       1
    36   33   34       2
    37   33   36      am
    38   35   36       1
    39   36   37       1
    40   37   38      ar
    41   37   41      ar
    42   38   39      ar
    43   39   40      ar
    44   40   42      ar
    45   41   42      ar
    46   42   43       1
    47   43   44       2
    48   43   45       1
    49    5   46       1
    50    6   47       1
    51    9   48       1
    52    9   49       1
    53    9   50       1
    54   10   51       1
    55   11   52       1
    56   13   53       1
    57   13   54       1
    58   14   55       1
    59   15   56       1
    60   15   57       1
    61   15   58       1
    62   16   59       1
    63   16   60       1
    64   16   61       1
    65   17   62       1
    66   17   63       1
    67   18   64       1
    68   19   65       1
    69   20   66       1
    70   21   67       1
    71   21   68       1
    72   23   69       1
    73   24   70       1
    74   25   71       1
    75   26   72       1
    76   27   73       1
    77   28   74       1
    78   31   75       1
    79   35   76       1
    80   35   77       1
    81   38   78       1
    82   39   79       1
    83   40   80       1
    84   41   81       1
    85   45   82       1
    86   45   83       1
    87   45   84       1
@<TRIPOS>SUBSTRUCTURE
     1 MUT200      1 GROUP             4 A     MUT     0 **** MUT A 200
