@<TRIPOS>MOLECULE
4f8h_RKE_5_ligand
   32    33     1     0     0
SMALL
NO_CHARGES


@<TRIPOS>ATOM
     1 CAA         44.9300    -1.6810     9.7050 C.ar         1 RKE401   0.0000
     2 CAB         43.8920    -2.4610    10.1580 C.ar         1 RKE401   0.0000
     3 CAC         45.3240    -0.5420    10.3970 C.ar         1 RKE401   0.0000
     4 CAD         43.2490    -2.0830    11.3200 C.ar         1 RKE401   0.0000
     5 CAE         44.6770    -0.1400    11.5730 C.ar         1 RKE401   0.0000
     6 CAF         43.6240    -0.9520    12.0290 C.ar         1 RKE401   0.0000
     7 CAG         45.9380     2.0970    11.3490 C.2          1 RKE401   0.0000
     8 CAH         45.0650     3.0690    10.5970 C.3          1 RKE401   0.0000
     9 CAI         44.3000     3.9650    11.6070 C.3          1 RKE401   0.0000
    10 CAJ         43.3260     3.0540    12.3770 C.3          1 RKE401   0.0000
    11 CAK         44.0970     1.9470    13.1450 C.3          1 RKE401   0.0000
    12 CAL         45.1820     1.1490    12.3120 C.3          1 RKE401   0.0000
    13 CAM         46.6660     1.6670    14.2730 C.3          1 RKE401   0.0000
    14 NAN         46.1590     0.7220    13.2910 N.3          1 RKE401   0.0000
    15 OAO         47.1420     2.0800    11.2200 O.2          1 RKE401   0.0000
    16 CLAP        42.7000    -0.5750    13.5580 Cl           1 RKE401   0.0000
    17 HAA         45.4085    -1.9372     8.8651 H            1 RKE401   0.0000
    18 HAB         43.6102    -3.2805     9.6589 H            1 RKE401   0.0000
    19 HAC         46.0863     0.0029    10.0478 H            1 RKE401   0.0000
    20 HAD         42.4916    -2.6406    11.6597 H            1 RKE401   0.0000
    21 HAH1        44.4091     2.5633    10.0365 H            1 RKE401   0.0000
    22 HAH2        45.6348     3.6420    10.0079 H            1 RKE401   0.0000
    23 HAI1        43.7920     4.6748    11.1190 H            1 RKE401   0.0000
    24 HAI2        44.9437     4.3925    12.2418 H            1 RKE401   0.0000
    25 HAJ1        42.6962     2.6256    11.7291 H            1 RKE401   0.0000
    26 HAJ2        42.8078     3.6060    13.0303 H            1 RKE401   0.0000
    27 HAK1        43.4267     1.2874    13.4850 H            1 RKE401   0.0000
    28 HAK2        44.5618     2.3785    13.9182 H            1 RKE401   0.0000
    29 HAM1        47.3272     1.2083    14.8666 H            1 RKE401   0.0000
    30 HAM2        47.1121     2.4288    13.8032 H            1 RKE401   0.0000
    31 HAM3        45.9074     2.0138    14.8245 H            1 RKE401   0.0000
    32 HAN         45.7451    -0.0312    13.8022 H            1 RKE401   0.0000
@<TRIPOS>BOND
     1    1    2      ar
     2    1    3      ar
     3    2    4      ar
     4    3    5      ar
     5    4    6      ar
     6    5    6      ar
     7    5   12       1
     8    6   16       1
     9    7    8       1
    10    7   12       1
    11    7   15       2
    12    8    9       1
    13    9   10       1
    14   10   11       1
    15   11   12       1
    16   12   14       1
    17   13   14       1
    18    1   17       1
    19    2   18       1
    20    3   19       1
    21    4   20       1
    22    8   21       1
    23    8   22       1
    24    9   23       1
    25    9   24       1
    26   10   25       1
    27   10   26       1
    28   11   27       1
    29   11   28       1
    30   13   29       1
    31   13   30       1
    32   13   31       1
    33   14   32       1
@<TRIPOS>SUBSTRUCTURE
     1 RKE401      1 GROUP             4 E     RKE     0 **** RKE E 401
