@<TRIPOS>MOLECULE
2idv_M7G_1_ligand
   44    46     1     0     0
SMALL
NO_CHARGES


@<TRIPOS>ATOM
     1 PA           3.8580     2.8630    -3.5830 P.3          1 M7G1000   0.0000
     2 O1A          2.7980     1.9420    -4.0520 O.co2        1 M7G1000   0.0000
     3 O2A          4.1330     2.9260    -2.1280 O.co2        1 M7G1000  -1.0000
     4 O3A          5.2370     2.4790    -4.3320 O.3          1 M7G1000   0.0000
     5 O5'          3.5580     4.3550    -4.1160 O.3          1 M7G1000   0.0000
     6 PB           5.2240     1.5170    -5.6310 P.3          1 M7G1000   0.0000
     7 O1B          4.1930     1.8910    -6.6290 O.co2        1 M7G1000   0.0000
     8 O2B          5.0380     0.0180    -5.0620 O.co2        1 M7G1000  -1.0000
     9 O3B          6.7230     1.5780    -6.2270 O.co2        1 M7G1000  -1.0000
    10 C5'          3.0970     4.5880    -5.4490 C.3          1 M7G1000   0.0000
    11 C4'          2.5590     6.0160    -5.5700 C.3          1 M7G1000   0.0000
    12 O4'          1.4500     6.2530    -4.6840 O.3          1 M7G1000   0.0000
    13 C3'          3.5940     7.0800    -5.2000 C.3          1 M7G1000   0.0000
    14 O3'          4.4540     7.3130    -6.3180 O.3          1 M7G1000   0.0000
    15 C2'          2.6420     8.2660    -5.0650 C.3          1 M7G1000   0.0000
    16 O2'          2.1720     8.6410    -6.3620 O.3          1 M7G1000   0.0000
    17 C1'          1.5110     7.6280    -4.2530 C.3          1 M7G1000   0.0000
    18 N9           1.8300     7.6580    -2.8040 N.2          1 M7G1000   1.0000
    19 C8           2.4540     6.6930    -2.1250 C.2          1 M7G1000   0.0000
    20 N7           2.5350     7.0640    -0.8500 N.pl3        1 M7G1000   0.0000
    21 CM7          3.1690     6.2760     0.2330 C.3          1 M7G1000   0.0000
    22 C5           1.9720     8.2560    -0.6970 C.2          1 M7G1000   0.0000
    23 C6           1.7570     9.0880     0.3960 C.2          1 M7G1000   0.0000
    24 O6           2.1400     8.7550     1.5180 O.2          1 M7G1000   0.0000
    25 N1           1.0850    10.3000     0.2000 N.pl3        1 M7G1000   0.0000
    26 C2           0.6590    10.6430    -1.0930 C.2          1 M7G1000   0.0000
    27 N2           0.0150    11.7900    -1.2880 N.pl3        1 M7G1000   0.0000
    28 N3           0.8800     9.8090    -2.1190 N.2          1 M7G1000   0.0000
    29 C4           1.5160     8.6360    -1.9560 C.2          1 M7G1000   0.0000
    30 H5'1         2.3678     3.9391    -5.6662 H            1 M7G1000   0.0000
    31 H5'2         3.8553     4.4637    -6.0889 H            1 M7G1000   0.0000
    32 H4'          2.2593     6.1700    -6.5115 H            1 M7G1000   0.0000
    33 H3'          4.0896     6.8729    -4.3565 H            1 M7G1000   0.0000
    34 H5           3.9113     7.6306    -7.0956 H            1 M7G1000   0.0000
    35 H2'          3.0642     9.0333    -4.5823 H            1 M7G1000   0.0000
    36 H7           1.5478     9.4178    -6.2786 H            1 M7G1000   0.0000
    37 H1'          0.6436     8.0921    -4.4323 H            1 M7G1000   0.0000
    38 H9           2.8012     5.8375    -2.5090 H            1 M7G1000   0.0000
    39 HM71         3.0961     6.7763     1.0958 H            1 M7G1000   0.0000
    40 HM72         2.7054     5.3941     0.3188 H            1 M7G1000   0.0000
    41 HM73         4.1334     6.1258     0.0152 H            1 M7G1000   0.0000
    42 H13          0.9107    10.9132     0.9704 H            1 M7G1000   0.0000
    43 H14         -0.2916    12.0414    -2.2060 H            1 M7G1000   0.0000
    44 H15         -0.1626    12.4011    -0.5166 H            1 M7G1000   0.0000
@<TRIPOS>BOND
     1    1    2      ar
     2    1    3      ar
     3    1    4       1
     4    1    5       1
     5    4    6       1
     6    5   10       1
     7    6    7      ar
     8    6    8      ar
     9    6    9      ar
    10   10   11       1
    11   11   12       1
    12   11   13       1
    13   12   17       1
    14   13   14       1
    15   13   15       1
    16   15   16       1
    17   15   17       1
    18   17   18       1
    19   18   19       2
    20   18   29       1
    21   19   20       1
    22   20   21       1
    23   20   22       1
    24   22   23       1
    25   22   29       2
    26   23   24       2
    27   23   25       1
    28   25   26       1
    29   26   27       1
    30   26   28       2
    31   28   29       1
    32   27   44       1
    33   27   43       1
    34   25   42       1
    35   10   30       1
    36   10   31       1
    37   11   32       1
    38   13   33       1
    39   14   34       1
    40   15   35       1
    41   16   36       1
    42   17   37       1
    43   19   38       1
    44   21   39       1
    45   21   40       1
    46   21   41       1
@<TRIPOS>SUBSTRUCTURE
     1 M7G1000     1 GROUP             4 A     M7G     0 **** M7G A1000
