@<TRIPOS>MOLECULE
1ee9_NAD_1_ligand
   70    74     1     0     0
SMALL
NO_CHARGES


@<TRIPOS>ATOM
     1 PA           5.5290    14.1240    -2.3560 P.3          1 NAD321   0.0000
     2 O1A          6.8340    13.6880    -1.7970 O.co2        1 NAD321   0.0000
     3 O2A          4.3950    13.1680    -2.4400 O.co2        1 NAD321  -1.0000
     4 O5B          5.0570    15.4390    -1.5700 O.3          1 NAD321   0.0000
     5 C5B          3.7330    15.9390    -1.7650 C.3          1 NAD321   0.0000
     6 C4B          3.3780    16.7910    -0.5630 C.3          1 NAD321   0.0000
     7 O4B          1.9430    16.8960    -0.5780 O.3          1 NAD321   0.0000
     8 C3B          3.7500    16.0970     0.7390 C.3          1 NAD321   0.0000
     9 O3B          3.9390    16.9900     1.8450 O.3          1 NAD321   0.0000
    10 C2B          2.5640    15.1730     0.9220 C.3          1 NAD321   0.0000
    11 O2B          2.4640    14.7770     2.2920 O.3          1 NAD321   0.0000
    12 C1B          1.4120    16.0620     0.4690 C.3          1 NAD321   0.0000
    13 N9A          0.2100    15.2980     0.0430 N.pl3        1 NAD321   0.0000
    14 C8A          0.1740    14.2720    -0.8290 C.2          1 NAD321   0.0000
    15 N7A         -1.0190    13.6570    -0.8120 N.2          1 NAD321   0.0000
    16 C5A         -1.7060    14.3370     0.0920 C.ar         1 NAD321   0.0000
    17 C6A         -3.0170    14.0660     0.4620 C.ar         1 NAD321   0.0000
    18 N6A         -3.7060    13.0560    -0.0570 N.pl3        1 NAD321   0.0000
    19 N1A         -3.5510    14.8680     1.4000 N.ar         1 NAD321   0.0000
    20 C2A         -2.8470    15.8710     1.9350 C.ar         1 NAD321   0.0000
    21 N3A         -1.5820    16.1260     1.5800 N.ar         1 NAD321   0.0000
    22 C4A         -0.9770    15.3650     0.6440 C.ar         1 NAD321   0.0000
    23 O3           5.7280    14.7380    -3.8250 O.3          1 NAD321   0.0000
    24 PN           6.3320    16.0850    -4.4660 P.3          1 NAD321   0.0000
    25 O1N          6.9530    15.6940    -5.7580 O.co2        1 NAD321   0.0000
    26 O2N          7.1650    16.8110    -3.4750 O.co2        1 NAD321  -1.0000
    27 O5D          5.0220    16.9910    -4.7990 O.3          1 NAD321   0.0000
    28 C5D          5.0820    18.3460    -5.3120 C.3          1 NAD321   0.0000
    29 C4D          4.0430    18.6770    -6.3950 C.3          1 NAD321   0.0000
    30 O4D          3.6960    20.0780    -6.3500 O.3          1 NAD321   0.0000
    31 C3D          4.5480    18.4310    -7.8190 C.3          1 NAD321   0.0000
    32 O3D          4.2870    17.1040    -8.3030 O.3          1 NAD321   0.0000
    33 C2D          3.7590    19.4260    -8.6620 C.3          1 NAD321   0.0000
    34 O2D          2.5350    18.8330    -9.1340 O.3          1 NAD321   0.0000
    35 C1D          3.5640    20.5950    -7.7000 C.3          1 NAD321   0.0000
    36 N1N          4.5050    21.7100    -8.0200 N.ar         1 NAD321   1.0000
    37 C2N          4.1680    22.6610    -9.0160 C.ar         1 NAD321   0.0000
    38 C3N          5.0360    23.7180    -9.3270 C.ar         1 NAD321   0.0000
    39 C7N          4.6100    24.8880   -10.2330 C.2          1 NAD321   0.0000
    40 O7N          5.4420    25.6250   -10.7560 O.2          1 NAD321   0.0000
    41 N7N          3.3060    25.0670   -10.3970 N.am         1 NAD321   0.0000
    42 C4N          6.2590    23.8010    -8.6490 C.ar         1 NAD321   0.0000
    43 C5N          6.6120    22.8740    -7.6620 C.ar         1 NAD321   0.0000
    44 C6N          5.7360    21.8370    -7.3370 C.ar         1 NAD321   0.0000
    45 H5B1         3.0899    15.1773    -1.8440 H            1 NAD321   0.0000
    46 H5B2         3.6976    16.4928    -2.5969 H            1 NAD321   0.0000
    47 H4B          3.8048    17.6933    -0.6237 H            1 NAD321   0.0000
    48 H3B          4.5786    15.5539     0.6030 H            1 NAD321   0.0000
    49 H5           3.2902    16.7630     2.5713 H            1 NAD321   0.0000
    50 H2B          2.6459    14.3723     0.3286 H            1 NAD321   0.0000
    51 H7           2.9932    13.9409     2.4368 H            1 NAD321   0.0000
    52 H1B          1.1523    16.6503     1.2348 H            1 NAD321   0.0000
    53 H8A          0.9387    14.0028    -1.4145 H            1 NAD321   0.0000
    54 H6A1        -4.6485    12.8918     0.2342 H            1 NAD321   0.0000
    55 H6A2        -3.2823    12.4598    -0.7389 H            1 NAD321   0.0000
    56 H2A         -3.2809    16.4509     2.6245 H            1 NAD321   0.0000
    57 H5D1         5.9920    18.4906    -5.7006 H            1 NAD321   0.0000
    58 H5D2         4.9429    18.9740    -4.5463 H            1 NAD321   0.0000
    59 H4D          3.2206    18.1299    -6.2392 H            1 NAD321   0.0000
    60 H3D          5.5260    18.6315    -7.8763 H            1 NAD321   0.0000
    61 H17          3.3973    17.0846    -8.7592 H            1 NAD321   0.0000
    62 H2D          4.3126    19.7202    -9.4411 H            1 NAD321   0.0000
    63 H19          1.9759    18.5559    -8.3526 H            1 NAD321   0.0000
    64 H1D          2.6305    20.9357    -7.8115 H            1 NAD321   0.0000
    65 H2N          3.2991    22.5770    -9.5038 H            1 NAD321   0.0000
    66 H7N1         2.9723    25.8117   -10.9750 H            1 NAD321   0.0000
    67 H7N2         2.6566    24.4572    -9.9427 H            1 NAD321   0.0000
    68 H4N          6.8942    24.5394    -8.8755 H            1 NAD321   0.0000
    69 H5N          7.4902    22.9543    -7.1904 H            1 NAD321   0.0000
    70 H6N          5.9795    21.1834    -6.6204 H            1 NAD321   0.0000
@<TRIPOS>BOND
     1    1    2      ar
     2    1    3      ar
     3    1    4       1
     4    1   23       1
     5    4    5       1
     6    5    6       1
     7    6    7       1
     8    6    8       1
     9    7   12       1
    10    8    9       1
    11    8   10       1
    12   10   11       1
    13   10   12       1
    14   12   13       1
    15   13   14       1
    16   13   22       1
    17   14   15       2
    18   15   16       1
    19   16   17      ar
    20   16   22      ar
    21   17   18       1
    22   17   19      ar
    23   19   20      ar
    24   20   21      ar
    25   21   22      ar
    26   23   24       1
    27   24   25      ar
    28   24   26      ar
    29   24   27       1
    30   27   28       1
    31   28   29       1
    32   29   30       1
    33   29   31       1
    34   30   35       1
    35   31   32       1
    36   31   33       1
    37   33   34       1
    38   33   35       1
    39   35   36       1
    40   36   37      ar
    41   36   44      ar
    42   37   38      ar
    43   38   39       1
    44   38   42      ar
    45   39   40       2
    46   39   41      am
    47   42   43      ar
    48   43   44      ar
    49   44   70       1
    50    5   45       1
    51    5   46       1
    52    6   47       1
    53    8   48       1
    54    9   49       1
    55   10   50       1
    56   11   51       1
    57   12   52       1
    58   14   53       1
    59   18   54       1
    60   18   55       1
    61   20   56       1
    62   43   69       1
    63   28   57       1
    64   28   58       1
    65   29   59       1
    66   31   60       1
    67   32   61       1
    68   33   62       1
    69   34   63       1
    70   35   64       1
    71   37   65       1
    72   41   66       1
    73   41   67       1
    74   42   68       1
@<TRIPOS>SUBSTRUCTURE
     1 NAD321      1 GROUP             4 A     NAD     0 **** NAD A 321
