@<TRIPOS>MOLECULE
4f79_P53_1_ligand
   41    42     1     0     0
SMALL
NO_CHARGES


@<TRIPOS>ATOM
     1 P           37.4650     2.9290    10.9810 P.3          1 P53501   0.0000
     2 C1          34.7770     4.9150     6.8430 C.ar         1 P53501   0.0000
     3 C2          35.9130     4.1270     6.7460 C.ar         1 P53501   0.0000
     4 C4          35.9130     2.8230     7.2330 C.ar         1 P53501   0.0000
     5 C6          34.7560     2.3080     7.8330 C.ar         1 P53501   0.0000
     6 O6          35.9510     3.0130    10.5900 O.3          1 P53501   0.0000
     7 C8          33.6170     3.0980     7.9510 C.ar         1 P53501   0.0000
     8 C10         33.6210     4.4080     7.4350 C.ar         1 P53501   0.0000
     9 C13         32.4020     5.2720     7.5390 C.3          1 P53501   0.0000
    10 O15         31.6260     5.5170     6.4420 O.3          1 P53501   0.0000
    11 O17         32.4050     2.5920     8.5200 O.3          1 P53501   0.0000
    12 C19         32.4020     1.9000     9.6850 C.3          1 P53501   0.0000
    13 O1P         37.7290     4.1280    11.8800 O.co2        1 P53501   0.0000
    14 C21         32.7680     0.4210     9.4630 C.3          1 P53501   0.0000
    15 C23         33.3120    -0.1880    10.6390 C.3          1 P53501   0.0000
    16 C25         34.4440     0.5800    11.0290 C.3          1 P53501   0.0000
    17 C27         33.9820     1.9300    11.5500 C.3          1 P53501   0.0000
    18 O29         33.0490     2.6290    10.6930 O.3          1 P53501   0.0000
    19 O2P         37.6240     1.6470    11.7640 O.co2        1 P53501  -1.0000
    20 O32         31.6110    -0.2880     9.0890 O.3          1 P53501   0.0000
    21 O34         33.5950    -1.6190    10.3620 O.3          1 P53501   0.0000
    22 O36         35.2580    -0.1040    12.0230 O.3          1 P53501   0.0000
    23 C38         35.1050     2.8540    11.6980 C.3          1 P53501   0.0000
    24 O3P         38.3930     2.9280     9.7580 O.co2        1 P53501  -1.0000
    25 H1          34.7865     5.8496     6.4875 H            1 P53501   0.0000
    26 H2          36.7394     4.4983     6.3227 H            1 P53501   0.0000
    27 H3          36.7338     2.2570     7.1552 H            1 P53501   0.0000
    28 H4          34.7491     1.3693     8.1776 H            1 P53501   0.0000
    29 H5          32.7103     6.1618     7.8754 H            1 P53501   0.0000
    30 H6          31.8070     4.8459     8.2205 H            1 P53501   0.0000
    31 H7          31.6734     4.7362     5.8191 H            1 P53501   0.0000
    32 H8          31.4420     1.8822     9.9644 H            1 P53501   0.0000
    33 H9          33.4397     0.3596     8.7247 H            1 P53501   0.0000
    34 H10         32.6285    -0.1360    11.3671 H            1 P53501   0.0000
    35 H11         35.0085     0.7359    10.2184 H            1 P53501   0.0000
    36 H12         33.5565     1.7983    12.4453 H            1 P53501   0.0000
    37 H13         31.5192    -0.2747     8.0933 H            1 P53501   0.0000
    38 H14         33.9753    -2.0482    11.1812 H            1 P53501   0.0000
    39 H15         36.0394     0.4705    12.2666 H            1 P53501   0.0000
    40 H16         34.7282     3.7531    11.9210 H            1 P53501   0.0000
    41 H17         35.6646     2.5287    12.4603 H            1 P53501   0.0000
@<TRIPOS>BOND
     1    1    6       1
     2    1   13      ar
     3    1   19      ar
     4    1   24      ar
     5    2    3      ar
     6    2    8      ar
     7    3    4      ar
     8    4    5      ar
     9    5    7      ar
    10    6   23       1
    11    7    8      ar
    12    7   11       1
    13    8    9       1
    14    9   10       1
    15   11   12       1
    16   12   14       1
    17   12   18       1
    18   14   15       1
    19   14   20       1
    20   15   16       1
    21   15   21       1
    22   16   17       1
    23   16   22       1
    24   17   18       1
    25   17   23       1
    26    2   25       1
    27    3   26       1
    28    4   27       1
    29    5   28       1
    30    9   29       1
    31    9   30       1
    32   10   31       1
    33   12   32       1
    34   23   41       1
    35   14   33       1
    36   15   34       1
    37   16   35       1
    38   17   36       1
    39   23   40       1
    40   20   37       1
    41   21   38       1
    42   22   39       1
@<TRIPOS>SUBSTRUCTURE
     1 P53501      1 GROUP             4 A     P53     0 **** P53 A 501
