@<TRIPOS>MOLECULE
3iej_599_1_ligand
   69    73     1     0     0
SMALL
NO_CHARGES


@<TRIPOS>ATOM
     1 C1          -5.1660   -22.1770     8.8400 C.3          1 599221   0.0000
     2 N2          -4.9770   -21.3910     7.6340 N.4          1 599221   1.0000
     3 C3          -6.1370   -20.6820     7.0940 C.3          1 599221   0.0000
     4 C4          -6.5570   -19.7320     8.2340 C.3          1 599221   0.0000
     5 O5          -6.6950   -20.4170     9.4980 O.3          1 599221   0.0000
     6 C6          -5.5600   -21.1750     9.9310 C.3          1 599221   0.0000
     7 C13         -3.6530   -21.2560     7.0430 C.3          1 599221   0.0000
     8 C14         -3.5080   -22.2970     5.9520 C.3          1 599221   0.0000
     9 C15         -2.1600   -22.1560     5.2430 C.3          1 599221   0.0000
    10 N16         -1.3020   -23.2720     5.6430 N.pl3        1 599221   0.0000
    11 N21         -0.4110   -22.9710     6.6630 N.2          1 599221   0.0000
    12 C22          0.2870   -24.0990     6.9070 C.2          1 599221   0.0000
    13 C23         -0.1870   -25.1060     6.0780 C.2          1 599221   0.0000
    14 C24         -1.1890   -24.5610     5.2870 C.2          1 599221   0.0000
    15 C30         -1.9300   -25.3460     4.2330 C.3          1 599221   0.0000
    16 C31         -1.5950   -26.8350     4.3500 C.3          1 599221   0.0000
    17 N32         -0.1430   -26.9390     4.5710 N.am         1 599221   0.0000
    18 C33          0.2610   -26.5510     5.9380 C.3          1 599221   0.0000
    19 C39          1.3300   -24.1640     7.9480 C.ar         1 599221   0.0000
    20 C41          2.2520   -23.1200     8.0180 C.ar         1 599221   0.0000
    21 C42          3.2290   -23.1230     8.9990 C.ar         1 599221   0.0000
    22 C43          3.2630   -24.1680     9.9250 C.ar         1 599221   0.0000
    23 C44          2.3400   -25.2100     9.8640 C.ar         1 599221   0.0000
    24 C45          1.3550   -25.2110     8.8720 C.ar         1 599221   0.0000
    25 C52          2.3660   -26.1530    10.7410 C.1          1 599221   0.0000
    26 C53          2.4790   -26.8770    11.6820 C.1          1 599221   0.0000
    27 C54          2.4340   -27.6420    12.7210 C.ar         1 599221   0.0000
    28 C58          1.6180   -28.7780    12.7190 C.ar         1 599221   0.0000
    29 C59          1.5870   -29.6230    13.8320 C.ar         1 599221   0.0000
    30 C60          2.3820   -29.3360    14.9450 C.ar         1 599221   0.0000
    31 C61          3.2090   -28.2040    14.9350 C.ar         1 599221   0.0000
    32 C62          3.2260   -27.3550    13.8250 C.ar         1 599221   0.0000
    33 C69          0.7440   -27.3020     3.6440 C.2          1 599221   0.0000
    34 C70          0.3280   -27.4090     2.1890 C.3          1 599221   0.0000
    35 O71          1.5010   -27.4360     1.3560 O.3          1 599221   0.0000
    36 O77          1.8950   -27.5290     3.9310 O.2          1 599221   0.0000
    37 CL81         4.5270   -24.1460    11.1880 Cl           1 599221   0.0000
    38 CL83         2.3300   -30.4130    16.3840 Cl           1 599221   0.0000
    39 H1          -4.3180   -22.6458     9.0870 H            1 599221   0.0000
    40 H2          -5.8927   -22.8508     8.7066 H            1 599221   0.0000
    41 H3          -6.8739   -21.3214     6.8744 H            1 599221   0.0000
    42 H4          -5.8883   -20.1658     6.2745 H            1 599221   0.0000
    43 H5          -7.4343   -19.3145     7.9974 H            1 599221   0.0000
    44 H6          -5.8631   -19.0183     8.3295 H            1 599221   0.0000
    45 H7          -4.7942   -20.5566    10.1075 H            1 599221   0.0000
    46 H8          -5.7897   -21.6690    10.7696 H            1 599221   0.0000
    47 H9          -2.9541   -21.4012     7.7434 H            1 599221   0.0000
    48 H10         -3.5490   -20.3411     6.6529 H            1 599221   0.0000
    49 H11         -4.2434   -22.1776     5.2850 H            1 599221   0.0000
    50 H12         -3.5711   -23.2086     6.3581 H            1 599221   0.0000
    51 H13         -1.7311   -21.2912     5.5040 H            1 599221   0.0000
    52 H14         -2.2969   -22.1747     4.2526 H            1 599221   0.0000
    53 H15         -1.6624   -25.0174     3.3272 H            1 599221   0.0000
    54 H16         -2.9140   -25.2181     4.3567 H            1 599221   0.0000
    55 H17         -1.8481   -27.3103     3.5074 H            1 599221   0.0000
    56 H18         -2.0885   -27.2376     5.1209 H            1 599221   0.0000
    57 H19         -0.1929   -27.1281     6.6169 H            1 599221   0.0000
    58 H20          1.2523   -26.6249     6.0470 H            1 599221   0.0000
    59 H21          2.2074   -22.3689     7.3593 H            1 599221   0.0000
    60 H22          3.9027   -22.3853     9.0440 H            1 599221   0.0000
    61 H23          0.6806   -25.9479     8.8248 H            1 599221   0.0000
    62 H24          1.0552   -28.9862    11.9191 H            1 599221   0.0000
    63 H25          0.9975   -30.4308    13.8319 H            1 599221   0.0000
    64 H26          3.7887   -28.0034    15.7248 H            1 599221   0.0000
    65 H27          3.8079   -26.5417    13.8258 H            1 599221   0.0000
    66 H28         -0.2363   -26.6204     1.9447 H            1 599221   0.0000
    67 H29         -0.1968   -28.2493     2.0532 H            1 599221   0.0000
    68 H30          1.7956   -28.3827     1.2257 H            1 599221   0.0000
    69 H31         -5.1727   -22.1871     7.0613 H            1 599221   0.0000
@<TRIPOS>BOND
     1    1    2       1
     2    1    6       1
     3    2    3       1
     4    2    7       1
     5    3    4       1
     6    4    5       1
     7    5    6       1
     8    7    8       1
     9    8    9       1
    10    9   10       1
    11   10   11       1
    12   10   14       1
    13   11   12       2
    14   12   13       1
    15   12   19       1
    16   13   14       2
    17   13   18       1
    18   14   15       1
    19   15   16       1
    20   16   17       1
    21   17   18       1
    22   17   33      am
    23   19   20      ar
    24   19   24      ar
    25   20   21      ar
    26   21   22      ar
    27   22   23      ar
    28   22   37       1
    29   23   24      ar
    30   23   25       1
    31   25   26       3
    32   26   27       1
    33   27   28      ar
    34   27   32      ar
    35   28   29      ar
    36   29   30      ar
    37   30   31      ar
    38   30   38       1
    39   31   32      ar
    40   33   34       1
    41   33   36       2
    42   34   35       1
    43    1   39       1
    44    1   40       1
    45    3   41       1
    46    3   42       1
    47    4   43       1
    48    4   44       1
    49    6   45       1
    50    6   46       1
    51    7   47       1
    52    7   48       1
    53    8   49       1
    54    8   50       1
    55    9   51       1
    56    9   52       1
    57   15   53       1
    58   15   54       1
    59   16   55       1
    60   16   56       1
    61   18   57       1
    62   18   58       1
    63   20   59       1
    64   21   60       1
    65   24   61       1
    66   28   62       1
    67   29   63       1
    68   31   64       1
    69   32   65       1
    70   34   66       1
    71   34   67       1
    72   35   68       1
    73    2   69       1
@<TRIPOS>SUBSTRUCTURE
     1 599221      1 GROUP             4 A     599     0 **** 599 A 221
