@<TRIPOS>MOLECULE
1phk_ATP_1_ligand
   43    45     1     0     0
SMALL
NO_CHARGES


@<TRIPOS>ATOM
     1 PG          14.7640    21.6290    14.9470 P.3          1 ATP381   0.0000
     2 O1G         16.1920    21.4280    14.5930 O.co2        1 ATP381   0.0000
     3 O2G         13.9400    22.2210    13.8230 O.co2        1 ATP381  -1.0000
     4 O3G         14.6860    22.5480    16.0510 O.co2        1 ATP381  -1.0000
     5 PB          14.1700    19.2880    16.7980 P.3          1 ATP381   0.0000
     6 O1B         15.5440    18.9530    17.1980 O.co2        1 ATP381   0.0000
     7 O2B         13.3250    19.9520    17.7820 O.co2        1 ATP381  -1.0000
     8 O3B         14.1530    20.1690    15.4440 O.3          1 ATP381   0.0000
     9 PA          11.8800    17.7790    15.9390 P.3          1 ATP381   0.0000
    10 O1A         11.0180    17.5830    17.1140 O.co2        1 ATP381   0.0000
    11 O2A         11.4370    18.8460    15.0640 O.co2        1 ATP381  -1.0000
    12 O3A         13.3950    18.0120    16.3810 O.3          1 ATP381   0.0000
    13 O5'         12.0360    16.4240    15.1240 O.3          1 ATP381   0.0000
    14 C5'         13.1550    16.4170    14.1820 C.3          1 ATP381   0.0000
    15 C4'         12.8220    15.6270    12.9190 C.3          1 ATP381   0.0000
    16 O4'         12.6070    14.2380    13.3210 O.3          1 ATP381   0.0000
    17 C3'         11.5160    15.9870    12.2210 C.3          1 ATP381   0.0000
    18 O3'         11.6580    17.0240    11.3300 O.3          1 ATP381   0.0000
    19 C2'         11.0670    14.6450    11.6010 C.3          1 ATP381   0.0000
    20 O2'         11.6340    14.3190    10.3600 O.3          1 ATP381   0.0000
    21 C1'         11.5200    13.6640    12.6140 C.3          1 ATP381   0.0000
    22 N9          10.4590    13.2580    13.5540 N.pl3        1 ATP381   0.0000
    23 C8          10.1240    14.0500    14.6480 C.2          1 ATP381   0.0000
    24 N7           8.9720    13.7260    15.2180 N.2          1 ATP381   0.0000
    25 C5           8.5470    12.6090    14.4980 C.ar         1 ATP381   0.0000
    26 C6           7.4170    11.6840    14.6200 C.ar         1 ATP381   0.0000
    27 N6           6.5250    11.6770    15.6050 N.pl3        1 ATP381   0.0000
    28 N1           7.2630    10.7810    13.6130 N.ar         1 ATP381   0.0000
    29 C2           8.1830    10.7410    12.6140 C.ar         1 ATP381   0.0000
    30 N3           9.3880    11.2900    12.6070 N.ar         1 ATP381   0.0000
    31 C4           9.4160    12.3830    13.4160 C.ar         1 ATP381   0.0000
    32 H5'1        13.9493    16.0011    14.6248 H            1 ATP381   0.0000
    33 H5'2        13.3708    17.3597    13.9276 H            1 ATP381   0.0000
    34 H4'         13.5820    15.6816    12.2714 H            1 ATP381   0.0000
    35 H3'         10.8483    16.2547    12.9156 H            1 ATP381   0.0000
    36 H5          10.8000    17.5345    11.2732 H            1 ATP381   0.0000
    37 H2'         10.0696    14.6224    11.5323 H            1 ATP381   0.0000
    38 H7          11.8400    15.1583     9.8569 H            1 ATP381   0.0000
    39 H1'         11.8488    12.8483    12.1381 H            1 ATP381   0.0000
    40 H9          10.7016    14.7978    14.9754 H            1 ATP381   0.0000
    41 H10          5.7844    11.0050    15.6041 H            1 ATP381   0.0000
    42 H11          6.5943    12.3437    16.3471 H            1 ATP381   0.0000
    43 H12          7.9201    10.2396    11.7897 H            1 ATP381   0.0000
@<TRIPOS>BOND
     1    1    2      ar
     2    1    3      ar
     3    1    4      ar
     4    1    8       1
     5    5    6      ar
     6    5    7      ar
     7    5    8       1
     8    5   12       1
     9    9   10      ar
    10    9   11      ar
    11    9   12       1
    12    9   13       1
    13   13   14       1
    14   14   15       1
    15   15   16       1
    16   15   17       1
    17   16   21       1
    18   17   18       1
    19   17   19       1
    20   19   20       1
    21   19   21       1
    22   21   22       1
    23   22   23       1
    24   22   31       1
    25   23   24       2
    26   24   25       1
    27   25   26      ar
    28   25   31      ar
    29   26   27       1
    30   26   28      ar
    31   28   29      ar
    32   29   30      ar
    33   30   31      ar
    34   29   43       1
    35   27   42       1
    36   27   41       1
    37   23   40       1
    38   14   32       1
    39   14   33       1
    40   15   34       1
    41   17   35       1
    42   18   36       1
    43   19   37       1
    44   20   38       1
    45   21   39       1
@<TRIPOS>SUBSTRUCTURE
     1 ATP381      1 GROUP             4 A     ATP     0 **** ATP A 381
