@<TRIPOS>MOLECULE
3e8s_SAH_1_ligand
   46    48     1     0     0
SMALL
NO_CHARGES


@<TRIPOS>ATOM
     1 N           64.1650    21.7800    10.6560 N.4          1 SAH300   1.0000
     2 CA          63.8040    22.6920     9.5560 C.3          1 SAH300   0.0000
     3 CB          64.9870    22.9690     8.6060 C.3          1 SAH300   0.0000
     4 CG          65.5480    21.7920     7.8210 C.3          1 SAH300   0.0000
     5 SD          66.7440    22.2670     6.5320 S.3          1 SAH300   0.0000
     6 C           62.6100    22.2870     8.7270 C.2          1 SAH300   0.0000
     7 O           62.1960    23.0490     7.8310 O.co2        1 SAH300   0.0000
     8 OXT         62.0260    21.2280     8.8940 O.co2        1 SAH300  -1.0000
     9 C5'         68.3030    21.9750     7.4720 C.3          1 SAH300   0.0000
    10 C4'         68.6290    23.0410     8.5240 C.3          1 SAH300   0.0000
    11 O4'         69.8070    22.6760     9.2230 O.3          1 SAH300   0.0000
    12 C3'         68.8630    24.4690     7.9760 C.3          1 SAH300   0.0000
    13 O3'         68.0270    25.4110     8.6320 O.3          1 SAH300   0.0000
    14 C2'         70.3360    24.7180     8.2630 C.3          1 SAH300   0.0000
    15 O2'         70.7350    26.0580     8.4350 O.3          1 SAH300   0.0000
    16 C1'         70.5990    23.8180     9.4740 C.3          1 SAH300   0.0000
    17 N9          72.0090    23.4280     9.6030 N.pl3        1 SAH300   0.0000
    18 C8          72.7040    22.5630     8.7460 C.2          1 SAH300   0.0000
    19 N7          73.9630    22.4100     9.1990 N.2          1 SAH300   0.0000
    20 C5          74.0800    23.1780    10.3430 C.ar         1 SAH300   0.0000
    21 C6          75.1590    23.3790    11.1790 C.ar         1 SAH300   0.0000
    22 N6          76.3620    22.7690    10.9620 N.pl3        1 SAH300   0.0000
    23 N1          74.9780    24.1670    12.2780 N.ar         1 SAH300   0.0000
    24 C2          73.7610    24.7910    12.5090 C.ar         1 SAH300   0.0000
    25 N3          72.6730    24.5850    11.7010 N.ar         1 SAH300   0.0000
    26 C4          72.8580    23.7990    10.6090 C.ar         1 SAH300   0.0000
    27 H1          63.3680    21.6323    11.2417 H            1 SAH300   0.0000
    28 H2          64.4675    20.9051    10.2779 H            1 SAH300   0.0000
    29 HA          63.5705    23.5673     9.9795 H            1 SAH300   0.0000
    30 HB1         65.7324    23.3440     9.1572 H            1 SAH300   0.0000
    31 HB2         64.6850    23.6543     7.9434 H            1 SAH300   0.0000
    32 HG1         64.7865    21.3140     7.3832 H            1 SAH300   0.0000
    33 HG2         66.0045    21.1750     8.4620 H            1 SAH300   0.0000
    34 H5'1        69.0589    21.9419     6.8181 H            1 SAH300   0.0000
    35 H5'2        68.2254    21.0929     7.9367 H            1 SAH300   0.0000
    36 H4'         67.8741    23.0763     9.1789 H            1 SAH300   0.0000
    37 H3'         68.6967    24.4901     6.9901 H            1 SAH300   0.0000
    38 H12         68.2260    25.4077     9.6120 H            1 SAH300   0.0000
    39 H2'         70.8576    24.3465     7.4950 H            1 SAH300   0.0000
    40 H14         70.2392    26.4570     9.2063 H            1 SAH300   0.0000
    41 H1'         70.2911    24.2711    10.3106 H            1 SAH300   0.0000
    42 H16         72.3252    22.1288     7.9287 H            1 SAH300   0.0000
    43 H17         77.1261    22.9343    11.5856 H            1 SAH300   0.0000
    44 H18         76.4785    22.1572    10.1796 H            1 SAH300   0.0000
    45 H19         73.6746    25.4104    13.2893 H            1 SAH300   0.0000
    46 H20         64.9044    22.1838    11.1948 H            1 SAH300   0.0000
@<TRIPOS>BOND
     1    1    2       1
     2    2    3       1
     3    2    6       1
     4    3    4       1
     5    4    5       1
     6    5    9       1
     7    6    7      ar
     8    6    8      ar
     9    9   10       1
    10   10   11       1
    11   10   12       1
    12   11   16       1
    13   12   13       1
    14   12   14       1
    15   14   15       1
    16   14   16       1
    17   16   17       1
    18   17   18       1
    19   17   26       1
    20   18   19       2
    21   19   20       1
    22   20   21      ar
    23   20   26      ar
    24   21   22       1
    25   21   23      ar
    26   23   24      ar
    27   24   25      ar
    28   25   26      ar
    29    1   27       1
    30    1   28       1
    31    2   29       1
    32    3   30       1
    33    3   31       1
    34    4   32       1
    35    4   33       1
    36    1   46       1
    37    9   34       1
    38    9   35       1
    39   10   36       1
    40   12   37       1
    41   13   38       1
    42   14   39       1
    43   15   40       1
    44   16   41       1
    45   18   42       1
    46   22   43       1
    47   22   44       1
    48   24   45       1
@<TRIPOS>SUBSTRUCTURE
     1 SAH300      1 GROUP             4 A     SAH     0 **** SAH A 300
