@<TRIPOS>MOLECULE
3rde_OYP_4_ligand
   59    59     1     0     0
SMALL
NO_CHARGES


@<TRIPOS>ATOM
     1 C1         -16.9630   -31.1260   -81.9640 C.ar         1 OYP664   0.0000
     2 O1         -14.0370   -33.8110   -79.8270 O.co2        1 OYP664   0.0000
     3 C2         -16.3880   -30.2500   -82.8890 C.ar         1 OYP664   0.0000
     4 O2         -13.8560   -36.0570   -79.8040 O.co2        1 OYP664  -1.0000
     5 C3         -15.1820   -30.4840   -83.4740 C.ar         1 OYP664   0.0000
     6 O3         -17.3120   -28.8570   -84.4900 O.3          1 OYP664   0.0000
     7 C4         -14.5850   -31.6960   -83.2270 C.ar         1 OYP664   0.0000
     8 C5         -15.1390   -32.6040   -82.3230 C.ar         1 OYP664   0.0000
     9 C6         -16.3420   -32.3350   -81.6700 C.ar         1 OYP664   0.0000
    10 C7         -14.3260   -33.8600   -82.1900 C.3          1 OYP664   0.0000
    11 C8         -15.0230   -35.0200   -81.5740 C.3          1 OYP664   0.0000
    12 C9         -14.2700   -35.0270   -80.3040 C.2          1 OYP664   0.0000
    13 C10        -17.0800   -28.9480   -83.1460 C.3          1 OYP664   0.0000
    14 C11        -17.7610   -27.6150   -84.8830 C.3          1 OYP664   0.0000
    15 C12        -19.2140   -27.5490   -85.0610 C.1          1 OYP664   0.0000
    16 C13        -20.3760   -27.4090   -85.1330 C.1          1 OYP664   0.0000
    17 C14        -21.8320   -27.3200   -85.3580 C.3          1 OYP664   0.0000
    18 C15        -22.6180   -28.4940   -84.8730 C.3          1 OYP664   0.0000
    19 C16        -22.3050   -28.9180   -83.4020 C.3          1 OYP664   0.0000
    20 C17        -23.0960   -30.1080   -82.9540 C.3          1 OYP664   0.0000
    21 C18        -22.8610   -30.3850   -81.4510 C.3          1 OYP664   0.0000
    22 C19        -23.6300   -31.5840   -80.9040 C.3          1 OYP664   0.0000
    23 C20        -23.3140   -31.8140   -79.4390 C.3          1 OYP664   0.0000
    24 C21        -24.0400   -32.9710   -78.6930 C.3          1 OYP664   0.0000
    25 C22        -23.7760   -34.2370   -79.5130 C.3          1 OYP664   0.0000
    26 C23        -24.3310   -35.4990   -78.9170 C.3          1 OYP664   0.0000
    27 H1         -17.8219   -30.8831   -81.5131 H            1 OYP664   0.0000
    28 H2         -14.7475   -29.8005   -84.0606 H            1 OYP664   0.0000
    29 H3         -13.7381   -31.9323   -83.7034 H            1 OYP664   0.0000
    30 H4         -16.7398   -32.9823   -81.0198 H            1 OYP664   0.0000
    31 H5         -13.5258   -33.6494   -81.6285 H            1 OYP664   0.0000
    32 H6         -14.0288   -34.1315   -83.1054 H            1 OYP664   0.0000
    33 H7         -14.8988   -35.8631   -82.0972 H            1 OYP664   0.0000
    34 H8         -15.9995   -34.8522   -81.4391 H            1 OYP664   0.0000
    35 H9         -16.4998   -28.1897   -82.8487 H            1 OYP664   0.0000
    36 H10        -17.9469   -28.9193   -82.6483 H            1 OYP664   0.0000
    37 H11        -17.3246   -27.3808   -85.7517 H            1 OYP664   0.0000
    38 H12        -17.4966   -26.9478   -84.1866 H            1 OYP664   0.0000
    39 H13        -21.9889   -27.2262   -86.3412 H            1 OYP664   0.0000
    40 H14        -22.1695   -26.5048   -84.8874 H            1 OYP664   0.0000
    41 H15        -22.4208   -29.2709   -85.4710 H            1 OYP664   0.0000
    42 H16        -23.5898   -28.2658   -84.9325 H            1 OYP664   0.0000
    43 H17        -22.5155   -28.1497   -82.7975 H            1 OYP664   0.0000
    44 H18        -21.3320   -29.1385   -83.3343 H            1 OYP664   0.0000
    45 H19        -22.8139   -30.9081   -83.4834 H            1 OYP664   0.0000
    46 H20        -24.0685   -29.9327   -83.1075 H            1 OYP664   0.0000
    47 H21        -23.1387   -29.5739   -80.9362 H            1 OYP664   0.0000
    48 H22        -21.8845   -30.5498   -81.3122 H            1 OYP664   0.0000
    49 H23        -23.3767   -32.3994   -81.4245 H            1 OYP664   0.0000
    50 H24        -24.6107   -31.4161   -81.0040 H            1 OYP664   0.0000
    51 H25        -23.5328   -30.9674   -78.9538 H            1 OYP664   0.0000
    52 H26        -22.3321   -31.9915   -79.3736 H            1 OYP664   0.0000
    53 H27        -25.0220   -32.7889   -78.6423 H            1 OYP664   0.0000
    54 H28        -23.6717   -33.0730   -77.7689 H            1 OYP664   0.0000
    55 H29        -22.7865   -34.3462   -79.6072 H            1 OYP664   0.0000
    56 H30        -24.1853   -34.1134   -80.4170 H            1 OYP664   0.0000
    57 H31        -24.1147   -36.2723   -79.5130 H            1 OYP664   0.0000
    58 H32        -23.9245   -35.6488   -78.0157 H            1 OYP664   0.0000
    59 H33        -25.3233   -35.4161   -78.8255 H            1 OYP664   0.0000
@<TRIPOS>BOND
     1    1    3      ar
     2    1    9      ar
     3    2   12      ar
     4    3    5      ar
     5    3   13       1
     6    4   12      ar
     7    5    7      ar
     8    6   13       1
     9    6   14       1
    10    7    8      ar
    11    8    9      ar
    12    8   10       1
    13   10   11       1
    14   11   12       1
    15   14   15       1
    16   15   16       3
    17   16   17       1
    18   17   18       1
    19   18   19       1
    20   19   20       1
    21   20   21       1
    22   21   22       1
    23   22   23       1
    24   23   24       1
    25   24   25       1
    26   25   26       1
    27    1   27       1
    28   26   59       1
    29    5   28       1
    30    7   29       1
    31    9   30       1
    32   10   31       1
    33   10   32       1
    34   11   33       1
    35   11   34       1
    36   13   35       1
    37   13   36       1
    38   14   37       1
    39   14   38       1
    40   17   39       1
    41   17   40       1
    42   18   41       1
    43   18   42       1
    44   19   43       1
    45   19   44       1
    46   20   45       1
    47   20   46       1
    48   21   47       1
    49   21   48       1
    50   22   49       1
    51   22   50       1
    52   23   51       1
    53   23   52       1
    54   24   53       1
    55   24   54       1
    56   25   55       1
    57   25   56       1
    58   26   57       1
    59   26   58       1
@<TRIPOS>SUBSTRUCTURE
     1 OYP664      1 GROUP             4 D     OYP     0 **** OYP D 664
