@<TRIPOS>MOLECULE
4lnk_ADP_6_ligand
   39    41     1     0     0
SMALL
NO_CHARGES


@<TRIPOS>ATOM
     1 PB          46.7130    51.0070    16.1200 P.3          1 ADP502   0.0000
     2 O1B         48.1000    51.5420    16.3640 O.co2        1 ADP502   0.0000
     3 O2B         46.0240    51.6710    14.9450 O.co2        1 ADP502  -1.0000
     4 O3B         46.5630    49.4960    16.1840 O.co2        1 ADP502  -1.0000
     5 PA          44.3280    51.4170    17.6180 P.3          1 ADP502   0.0000
     6 O1A         43.6780    52.0290    16.3960 O.co2        1 ADP502   0.0000
     7 O2A         43.9860    49.9970    18.0410 O.co2        1 ADP502  -1.0000
     8 O3A         45.9310    51.5150    17.4370 O.3          1 ADP502   0.0000
     9 O5'         44.1010    52.4850    18.8120 O.3          1 ADP502   0.0000
    10 C5'         44.1380    52.1890    20.2110 C.3          1 ADP502   0.0000
    11 C4'         44.3890    53.5030    20.9630 C.3          1 ADP502   0.0000
    12 O4'         45.7020    53.9910    20.6370 O.3          1 ADP502   0.0000
    13 C3'         43.3880    54.6050    20.5970 C.3          1 ADP502   0.0000
    14 O3'         42.7630    55.1340    21.7830 O.3          1 ADP502   0.0000
    15 C2'         44.1870    55.6690    19.8410 C.3          1 ADP502   0.0000
    16 O2'         43.8180    57.0020    20.2370 O.3          1 ADP502   0.0000
    17 C1'         45.6550    55.3420    20.1340 C.3          1 ADP502   0.0000
    18 N9          46.5400    55.4810    18.9330 N.pl3        1 ADP502   0.0000
    19 C8          46.4720    54.7510    17.7950 C.2          1 ADP502   0.0000
    20 N7          47.4330    55.1270    16.9100 N.2          1 ADP502   0.0000
    21 C5          48.1440    56.1200    17.4840 C.ar         1 ADP502   0.0000
    22 C6          49.3020    56.9710    17.0970 C.ar         1 ADP502   0.0000
    23 N6          49.9030    56.8260    15.8840 N.pl3        1 ADP502   0.0000
    24 N1          49.7320    57.8970    17.9940 N.ar         1 ADP502   0.0000
    25 C2          49.1400    58.0480    19.1970 C.ar         1 ADP502   0.0000
    26 N3          48.0890    57.3130    19.6070 N.ar         1 ADP502   0.0000
    27 C4          47.5520    56.3510    18.8140 C.ar         1 ADP502   0.0000
    28 H5'1        44.8757    51.5416    20.4022 H            1 ADP502   0.0000
    29 H5'2        43.2653    51.7942    20.4982 H            1 ADP502   0.0000
    30 H4'         44.3397    53.3307    21.9468 H            1 ADP502   0.0000
    31 H3'         42.6859    54.2272    19.9933 H            1 ADP502   0.0000
    32 H5          43.4627    55.5180    22.3855 H            1 ADP502   0.0000
    33 H2'         44.0206    55.5640    18.8605 H            1 ADP502   0.0000
    34 H7          43.0726    57.3281    19.6556 H            1 ADP502   0.0000
    35 H1'         45.9843    55.9606    20.8474 H            1 ADP502   0.0000
    36 H9          45.8014    54.0284    17.6270 H            1 ADP502   0.0000
    37 H10         50.6802    57.4055    15.6386 H            1 ADP502   0.0000
    38 H11         49.5673    56.1400    15.2384 H            1 ADP502   0.0000
    39 H12         49.5015    58.7436    19.8179 H            1 ADP502   0.0000
@<TRIPOS>BOND
     1    1    2      ar
     2    1    3      ar
     3    1    4      ar
     4    1    8       1
     5    5    6      ar
     6    5    7      ar
     7    5    8       1
     8    5    9       1
     9    9   10       1
    10   10   11       1
    11   11   12       1
    12   11   13       1
    13   12   17       1
    14   13   14       1
    15   13   15       1
    16   15   16       1
    17   15   17       1
    18   17   18       1
    19   18   19       1
    20   18   27       1
    21   19   20       2
    22   20   21       1
    23   21   22      ar
    24   21   27      ar
    25   22   23       1
    26   22   24      ar
    27   24   25      ar
    28   25   26      ar
    29   26   27      ar
    30   25   39       1
    31   23   38       1
    32   23   37       1
    33   10   28       1
    34   10   29       1
    35   11   30       1
    36   13   31       1
    37   14   32       1
    38   15   33       1
    39   16   34       1
    40   17   35       1
    41   19   36       1
@<TRIPOS>SUBSTRUCTURE
     1 ADP502      1 GROUP             4 F     ADP     0 **** ADP F 502
