@<TRIPOS>MOLECULE
1p9w_ANP_1_ligand
   44    46     1     0     0
SMALL
NO_CHARGES


@<TRIPOS>ATOM
     1 PG          24.4030   -16.4000  -142.4210 P.3          1 ANP701   0.0000
     2 O1G         24.5190   -15.6050  -141.1890 O.co2        1 ANP701   0.0000
     3 O2G         24.7950   -15.5510  -143.6240 O.co2        1 ANP701  -1.0000
     4 O3G         23.0100   -17.0220  -142.5690 O.co2        1 ANP701  -1.0000
     5 PB          25.4050   -19.2640  -141.8040 P.3          1 ANP701   0.0000
     6 O1B         24.6550   -19.4660  -140.5540 O.co2        1 ANP701   0.0000
     7 O2B         25.0040   -20.0980  -142.9280 O.co2        1 ANP701  -1.0000
     8 N3B         25.5180   -17.6910  -142.2630 N.3          1 ANP701   0.0000
     9 PA          28.1280   -19.9350  -142.6030 P.3          1 ANP701   0.0000
    10 O1A         28.2610   -21.3310  -143.1220 O.co2        1 ANP701   0.0000
    11 O2A         28.4580   -18.7770  -143.5070 O.co2        1 ANP701  -1.0000
    12 O3A         26.8900   -19.6570  -141.6430 O.3          1 ANP701   0.0000
    13 O5'         29.1660   -20.0140  -141.4310 O.3          1 ANP701   0.0000
    14 C5'         29.5030   -18.9430  -140.5480 C.3          1 ANP701   0.0000
    15 C4'         31.0010   -19.0300  -140.4040 C.3          1 ANP701   0.0000
    16 O4'         31.3680   -20.1130  -139.5450 O.3          1 ANP701   0.0000
    17 C3'         31.7460   -19.3990  -141.6610 C.3          1 ANP701   0.0000
    18 O3'         32.8580   -18.5060  -141.6570 O.3          1 ANP701   0.0000
    19 C2'         32.0990   -20.8900  -141.5080 C.3          1 ANP701   0.0000
    20 O2'         33.4380   -21.1690  -141.7910 O.3          1 ANP701   0.0000
    21 C1'         32.1430   -21.2030  -140.0620 C.3          1 ANP701   0.0000
    22 N9          31.6530   -22.5400  -139.5450 N.pl3        1 ANP701   0.0000
    23 C8          30.4650   -23.1400  -139.7670 C.2          1 ANP701   0.0000
    24 N7          30.3370   -24.3040  -139.1570 N.2          1 ANP701   0.0000
    25 C5          31.5000   -24.4810  -138.4900 C.ar         1 ANP701   0.0000
    26 C6          31.9790   -25.5410  -137.6410 C.ar         1 ANP701   0.0000
    27 N6          31.2840   -26.6340  -137.3400 N.pl3        1 ANP701   0.0000
    28 N1          33.2360   -25.3940  -137.1180 N.ar         1 ANP701   0.0000
    29 C2          33.9590   -24.2830  -137.4160 C.ar         1 ANP701   0.0000
    30 N3          33.5780   -23.2680  -138.1900 N.ar         1 ANP701   0.0000
    31 C4          32.3360   -23.3960  -138.7170 C.ar         1 ANP701   0.0000
    32 H3B         26.1971   -17.3222  -141.6284 H            1 ANP701   0.0000
    33 H5'1        29.0552   -19.0613  -139.6617 H            1 ANP701   0.0000
    34 H5'2        29.2362   -18.0632  -140.9414 H            1 ANP701   0.0000
    35 H4'         31.3575   -18.1704  -140.0379 H            1 ANP701   0.0000
    36 H3'         31.1749   -19.2507  -142.4683 H            1 ANP701   0.0000
    37 H6          33.4232   -18.6739  -142.4647 H            1 ANP701   0.0000
    38 H2'         31.4704   -21.4850  -142.0089 H            1 ANP701   0.0000
    39 H8          33.9993   -20.3729  -141.5651 H            1 ANP701   0.0000
    40 H1'         33.0859   -21.0821  -139.7515 H            1 ANP701   0.0000
    41 H10         29.7489   -22.7407  -140.3396 H            1 ANP701   0.0000
    42 H11         31.6813   -27.3304  -136.7423 H            1 ANP701   0.0000
    43 H12         30.3640   -26.7596  -137.7113 H            1 ANP701   0.0000
    44 H13         34.8718   -24.2208  -137.0124 H            1 ANP701   0.0000
@<TRIPOS>BOND
     1    1    2      ar
     2    1    3      ar
     3    1    4      ar
     4    1    8       1
     5    5    6      ar
     6    5    7      ar
     7    5    8       1
     8    5   12       1
     9    9   10      ar
    10    9   11      ar
    11    9   12       1
    12    9   13       1
    13   13   14       1
    14   14   15       1
    15   15   16       1
    16   15   17       1
    17   16   21       1
    18   17   18       1
    19   17   19       1
    20   19   20       1
    21   19   21       1
    22   21   22       1
    23   22   23       1
    24   22   31       1
    25   23   24       2
    26   24   25       1
    27   25   26      ar
    28   25   31      ar
    29   26   27       1
    30   26   28      ar
    31   28   29      ar
    32   29   30      ar
    33   30   31      ar
    34   29   44       1
    35   27   43       1
    36   27   42       1
    37    8   32       1
    38   23   41       1
    39   14   33       1
    40   14   34       1
    41   15   35       1
    42   17   36       1
    43   18   37       1
    44   19   38       1
    45   20   39       1
    46   21   40       1
@<TRIPOS>SUBSTRUCTURE
     1 ANP701      1 GROUP             4 A     ANP     0 **** ANP A 701
