@<TRIPOS>MOLECULE
2kot_ANW_2_ligand
   35    37     1     0     0
SMALL
NO_CHARGES


@<TRIPOS>ATOM
     1 NAA         -9.6590   -13.8660     2.1240 N.ar         1 ANW99    0.0000
     2 NAB         -9.6800   -14.8130     0.0030 N.pl3        1 ANW99    0.0000
     3 CAC        -12.7220   -10.2220     9.1330 C.3          1 ANW99    0.0000
     4 CAD        -12.1280   -11.6240     8.9710 C.3          1 ANW99    0.0000
     5 CAE        -11.0130   -11.8290     9.9970 C.3          1 ANW99    0.0000
     6 CAF        -11.6210   -11.7840     7.6850 C.ar         1 ANW99    0.0000
     7 CAG        -12.0810   -12.8300     6.8930 C.ar         1 ANW99    0.0000
     8 CAH        -11.5600   -13.0210     5.6160 C.ar         1 ANW99    0.0000
     9 CAI        -10.5730   -12.1670     5.1340 C.ar         1 ANW99    0.0000
    10 CAJ        -10.1160   -11.1160     5.9220 C.ar         1 ANW99    0.0000
    11 CAK        -10.6380   -10.9270     7.1990 C.ar         1 ANW99    0.0000
    12 CAL        -10.3040   -13.5710     3.2610 C.ar         1 ANW99    0.0000
    13 CAM        -10.1740   -14.7260     1.2330 C.ar         1 ANW99    0.0000
    14 CAN        -11.3940   -15.3520     1.4620 C.ar         1 ANW99    0.0000
    15 CAO        -12.0880   -15.0500     2.6270 C.ar         1 ANW99    0.0000
    16 CAP        -11.5350   -14.1540     3.5340 C.ar         1 ANW99    0.0000
    17 CAQ        -12.0920   -14.0050     4.7940 C.2          1 ANW99    0.0000
    18 CAR        -11.8210   -16.3950     0.6510 C.2          1 ANW99    0.0000
    19 OAS         -9.9530   -12.4510     3.9540 O.2          1 ANW99    0.0000
    20 OAT        -13.0060   -14.7330     5.1820 O.2          1 ANW99    0.0000
    21 OAU        -12.9390   -16.9200     0.8470 O.co2        1 ANW99    0.0000
    22 OAV        -11.0900   -16.8230    -0.2670 O.co2        1 ANW99   -1.0000
    23 HAB1       -10.0750   -15.4593    -0.6499 H            1 ANW99    0.0000
    24 HAB2        -8.9131   -14.2322    -0.2701 H            1 ANW99    0.0000
    25 HAC1       -13.4510   -10.0892     8.4615 H            1 ANW99    0.0000
    26 HAC2       -13.0961   -10.1230    10.0551 H            1 ANW99    0.0000
    27 HAC3       -12.0068    -9.5382     8.9882 H            1 ANW99    0.0000
    28 HAD        -12.8451   -12.3033     9.1269 H            1 ANW99    0.0000
    29 HAE1       -10.6260   -12.7449     9.8902 H            1 ANW99    0.0000
    30 HAE2       -10.2973   -11.1457     9.8525 H            1 ANW99    0.0000
    31 HAE3       -11.3865   -11.7305    10.9194 H            1 ANW99    0.0000
    32 HAG        -12.7874   -13.4463     7.2411 H            1 ANW99    0.0000
    33 HAJ         -9.4133   -10.4967     5.5718 H            1 ANW99    0.0000
    34 HAK        -10.3061   -10.1744     7.7677 H            1 ANW99    0.0000
    35 HAO        -12.9755   -15.4726     2.8108 H            1 ANW99    0.0000
@<TRIPOS>BOND
     1    1   12      ar
     2    1   13      ar
     3    2   13       1
     4    3    4       1
     5    4    5       1
     6    4    6       1
     7    6    7      ar
     8    6   11      ar
     9    7    8      ar
    10    8    9      ar
    11    8   17       1
    12    9   10      ar
    13    9   19       1
    14   10   11      ar
    15   12   16      ar
    16   12   19       1
    17   13   14      ar
    18   14   15      ar
    19   14   18       1
    20   15   16      ar
    21   16   17       1
    22   17   20       2
    23   18   21      ar
    24   18   22      ar
    25    2   23       1
    26    2   24       1
    27    3   25       1
    28    3   26       1
    29    3   27       1
    30    4   28       1
    31    5   29       1
    32    5   30       1
    33    5   31       1
    34    7   32       1
    35   10   33       1
    36   11   34       1
    37   15   35       1
@<TRIPOS>SUBSTRUCTURE
     1 ANW99       1 GROUP             4 B     ANW     0 **** ANW B  99
