@<TRIPOS>MOLECULE
4u9v_ACO_1_ligand
   85    87     1     0     0
SMALL
NO_CHARGES


@<TRIPOS>ATOM
     1 N1A         24.6540    11.3670     4.3390 N.ar         1 ACO301   0.0000
     2 C2A         25.3000    12.1950     5.1860 C.ar         1 ACO301   0.0000
     3 N3A         24.6880    12.8140     6.2010 N.ar         1 ACO301   0.0000
     4 C4A         23.3300    12.5890     6.3990 C.ar         1 ACO301   0.0000
     5 C5A         22.6200    11.7410     5.5560 C.ar         1 ACO301   0.0000
     6 C6A         23.3450    11.0940     4.4550 C.ar         1 ACO301   0.0000
     7 N6A         22.6540    10.1960     3.5490 N.pl3        1 ACO301   0.0000
     8 N7A         21.3090    11.7120     5.9860 N.2          1 ACO301   0.0000
     9 C8A         21.2190    12.5170     7.0650 C.2          1 ACO301   0.0000
    10 N9A         22.4010    13.0510     7.3370 N.pl3        1 ACO301   0.0000
    11 C1B         22.6900    13.9420     8.3420 C.3          1 ACO301   0.0000
    12 C2B         22.8240    15.3040     7.6990 C.3          1 ACO301   0.0000
    13 O2B         23.7220    16.0820     8.4840 O.3          1 ACO301   0.0000
    14 C3B         21.4730    15.8750     7.7950 C.3          1 ACO301   0.0000
    15 O3B         21.4910    17.3130     7.8320 O.3          1 ACO301   0.0000
    16 P3B         21.4890    18.1280     6.4320 P.3          1 ACO301   0.0000
    17 O7A         21.3270    19.5630     6.7510 O.co2        1 ACO301   0.0000
    18 O8A         22.8130    18.0410     5.8580 O.co2        1 ACO301  -1.0000
    19 O9A         20.4100    17.5800     5.3930 O.co2        1 ACO301  -1.0000
    20 C4B         21.0500    15.3820     9.1120 C.3          1 ACO301   0.0000
    21 O4B         21.5820    14.0470     9.2590 O.3          1 ACO301   0.0000
    22 C5B         19.5300    15.3790     9.2380 C.3          1 ACO301   0.0000
    23 O5B         19.1160    14.5000     8.2140 O.3          1 ACO301   0.0000
    24 P1A         17.6040    14.0600     8.0520 P.3          1 ACO301   0.0000
    25 O1A         16.8920    14.8850     7.0500 O.co2        1 ACO301   0.0000
    26 O2A         16.7810    14.1970     9.2670 O.co2        1 ACO301  -1.0000
    27 O3A         17.7110    12.5660     7.5790 O.3          1 ACO301   0.0000
    28 P2A         16.5240    11.5920     7.1560 P.3          1 ACO301   0.0000
    29 O4A         15.1840    12.1950     7.3580 O.co2        1 ACO301   0.0000
    30 O5A         16.6420    11.2290     5.7360 O.co2        1 ACO301  -1.0000
    31 O6A         16.6480    10.2880     8.0730 O.3          1 ACO301   0.0000
    32 CBP         17.5660     8.0830     7.8940 C.3          1 ACO301   0.0000
    33 CCP         17.9030     9.5690     8.0730 C.3          1 ACO301   0.0000
    34 CDP         16.7300     7.6120     9.0570 C.3          1 ACO301   0.0000
    35 CEP         18.8330     7.2720     7.8570 C.3          1 ACO301   0.0000
    36 CAP         16.7680     7.9170     6.5650 C.3          1 ACO301   0.0000
    37 OAP         17.5140     8.4120     5.5010 O.3          1 ACO301   0.0000
    38 C9P         16.4190     6.4730     6.2600 C.2          1 ACO301   0.0000
    39 O9P         15.3980     5.9540     6.6870 O.2          1 ACO301   0.0000
    40 N8P         17.3150     5.7080     5.4450 N.am         1 ACO301   0.0000
    41 C7P         17.0340     4.3580     5.0740 C.3          1 ACO301   0.0000
    42 C6P         17.1260     3.3340     6.2260 C.3          1 ACO301   0.0000
    43 C5P         18.2840     3.4780     7.2300 C.2          1 ACO301   0.0000
    44 O5P         19.4300     3.5330     6.8630 O.2          1 ACO301   0.0000
    45 N4P         17.9360     3.5660     8.6030 N.am         1 ACO301   0.0000
    46 C3P         18.9590     3.7140     9.6290 C.3          1 ACO301   0.0000
    47 C2P         19.5730     2.3720     9.9950 C.3          1 ACO301   0.0000
    48 S1P         19.9910     2.2550    11.7420 S.3          1 ACO301   0.0000
    49 C           18.4350     2.1640    12.5890 C.2          1 ACO301   0.0000
    50 O           17.4630     1.8370    11.9270 O.2          1 ACO301   0.0000
    51 CH3         18.4360     2.0080    14.0730 C.3          1 ACO301   0.0000
    52 H2A         26.2780    12.3524     5.0489 H            1 ACO301   0.0000
    53 H6A1        21.6772    10.0185     3.6692 H            1 ACO301   0.0000
    54 H6A2        23.1545     9.7545     2.8043 H            1 ACO301   0.0000
    55 H8A         20.3814    12.6862     7.5844 H            1 ACO301   0.0000
    56 H1B         23.5300    13.6854     8.8201 H            1 ACO301   0.0000
    57 H2B         23.1289    15.2352     6.7491 H            1 ACO301   0.0000
    58 H7          23.8239    16.9883     8.0739 H            1 ACO301   0.0000
    59 H3B         20.8780    15.5341     7.0672 H            1 ACO301   0.0000
    60 H4B         21.4371    15.9697     9.8224 H            1 ACO301   0.0000
    61 H5B1        19.1576    16.2959     9.0942 H            1 ACO301   0.0000
    62 H5B2        19.2464    15.0410    10.1354 H            1 ACO301   0.0000
    63 HCP1        18.3807     9.7112     8.9400 H            1 ACO301   0.0000
    64 HCP2        18.4796     9.8840     7.3192 H            1 ACO301   0.0000
    65 HDP1        16.5109     6.6434     8.9394 H            1 ACO301   0.0000
    66 HDP2        17.2412     7.7373     9.9073 H            1 ACO301   0.0000
    67 HDP3        15.8835     8.1429     9.0957 H            1 ACO301   0.0000
    68 HEP1        18.6065     6.3050     7.7402 H            1 ACO301   0.0000
    69 HEP2        19.4011     7.5760     7.0923 H            1 ACO301   0.0000
    70 HEP3        19.3333     7.3960     8.7139 H            1 ACO301   0.0000
    71 HAP         15.9204     8.4432     6.6333 H            1 ACO301   0.0000
    72 H21         17.3070     9.3817     5.3713 H            1 ACO301   0.0000
    73 H8P         18.1627     6.1321     5.1263 H            1 ACO301   0.0000
    74 H7P1        17.6866     4.0883     4.3659 H            1 ACO301   0.0000
    75 H7P2        16.1062     4.3248     4.7023 H            1 ACO301   0.0000
    76 H6P1        17.2023     2.4269     5.8121 H            1 ACO301   0.0000
    77 H6P2        16.2733     3.3929     6.7451 H            1 ACO301   0.0000
    78 H4P         16.9732     3.5258     8.8702 H            1 ACO301   0.0000
    79 H3P1        18.5454     4.1165    10.4457 H            1 ACO301   0.0000
    80 H3P2        19.6782     4.3188     9.2870 H            1 ACO301   0.0000
    81 H2P1        20.4062     2.2437     9.4571 H            1 ACO301   0.0000
    82 H2P2        18.9185     1.6492     9.7732 H            1 ACO301   0.0000
    83 HH31        17.4934     1.9719    14.4050 H            1 ACO301   0.0000
    84 HH32        18.9087     1.1618    14.3189 H            1 ACO301   0.0000
    85 HH33        18.9066     2.7858    14.4896 H            1 ACO301   0.0000
@<TRIPOS>BOND
     1    1    2      ar
     2    1    6      ar
     3    2    3      ar
     4    3    4      ar
     5    4    5      ar
     6    4   10       1
     7    5    6      ar
     8    5    8       1
     9    6    7       1
    10    8    9       2
    11    9   10       1
    12   10   11       1
    13   11   12       1
    14   11   21       1
    15   12   13       1
    16   12   14       1
    17   14   15       1
    18   14   20       1
    19   15   16       1
    20   16   17      ar
    21   16   18      ar
    22   16   19      ar
    23   20   21       1
    24   20   22       1
    25   22   23       1
    26   23   24       1
    27   24   25      ar
    28   24   26      ar
    29   24   27       1
    30   27   28       1
    31   28   29      ar
    32   28   30      ar
    33   28   31       1
    34   31   33       1
    35   32   33       1
    36   32   34       1
    37   32   35       1
    38   32   36       1
    39   36   37       1
    40   36   38       1
    41   38   39       2
    42   38   40      am
    43   40   41       1
    44   41   42       1
    45   42   43       1
    46   43   44       2
    47   43   45      am
    48   45   46       1
    49   46   47       1
    50   47   48       1
    51   48   49       1
    52   49   50       2
    53   49   51       1
    54    2   52       1
    55    7   53       1
    56    7   54       1
    57    9   55       1
    58   11   56       1
    59   12   57       1
    60   13   58       1
    61   14   59       1
    62   51   85       1
    63   51   84       1
    64   20   60       1
    65   22   61       1
    66   22   62       1
    67   51   83       1
    68   47   82       1
    69   33   63       1
    70   33   64       1
    71   34   65       1
    72   34   66       1
    73   34   67       1
    74   35   68       1
    75   35   69       1
    76   35   70       1
    77   36   71       1
    78   37   72       1
    79   40   73       1
    80   41   74       1
    81   41   75       1
    82   42   76       1
    83   42   77       1
    84   45   78       1
    85   46   79       1
    86   46   80       1
    87   47   81       1
@<TRIPOS>SUBSTRUCTURE
     1 ACO301      1 GROUP             4 B     ACO     0 **** ACO B 301
