@<TRIPOS>MOLECULE
3n71_SFG_1_ligand
   51    53     1     0     0
SMALL
NO_CHARGES


@<TRIPOS>ATOM
     1 N           45.3420    63.7340    31.7750 N.4          1 SFG491   1.0000
     2 CA          44.4630    64.2840    30.7070 C.3          1 SFG491   0.0000
     3 C           42.9160    64.3010    30.9580 C.2          1 SFG491   0.0000
     4 O           42.1090    64.4880    30.0210 O.co2        1 SFG491   0.0000
     5 OXT         42.4660    64.1310    32.0980 O.co2        1 SFG491  -1.0000
     6 CB          44.8650    63.5050    29.4150 C.3          1 SFG491   0.0000
     7 CG          45.8850    64.2250    28.5030 C.3          1 SFG491   0.0000
     8 CD          45.5350    65.6830    28.0300 C.3          1 SFG491   0.0000
     9 NE          45.4570    65.6860    26.5390 N.4          1 SFG491   1.0000
    10 C5'         46.5580    66.7920    28.3270 C.3          1 SFG491   0.0000
    11 C4'         46.9380    67.1590    29.7920 C.3          1 SFG491   0.0000
    12 O4'         47.2560    66.0570    30.6740 O.3          1 SFG491   0.0000
    13 C3'         48.1630    68.0420    29.8840 C.3          1 SFG491   0.0000
    14 O3'         47.8910    69.3750    29.5040 O.3          1 SFG491   0.0000
    15 C2'         48.5900    67.9070    31.3290 C.3          1 SFG491   0.0000
    16 O2'         47.8620    68.8320    32.1550 O.3          1 SFG491   0.0000
    17 C1'         48.2640    66.4580    31.6330 C.3          1 SFG491   0.0000
    18 N9          49.4360    65.5510    31.5250 N.pl3        1 SFG491   0.0000
    19 C8          49.8510    64.8500    30.3950 C.2          1 SFG491   0.0000
    20 N7          50.9200    64.1530    30.6160 N.2          1 SFG491   0.0000
    21 C5          51.2350    64.3720    31.9650 C.ar         1 SFG491   0.0000
    22 C6          52.3060    63.9430    32.8370 C.ar         1 SFG491   0.0000
    23 N6          53.2980    63.0680    32.4980 N.pl3        1 SFG491   0.0000
    24 N1          52.3260    64.3760    34.1550 N.ar         1 SFG491   0.0000
    25 C2          51.3560    65.2420    34.5460 C.ar         1 SFG491   0.0000
    26 N3          50.3190    65.7220    33.8200 N.ar         1 SFG491   0.0000
    27 C4          50.3430    65.2770    32.5220 C.ar         1 SFG491   0.0000
    28 H1          46.2963    63.7857    31.4808 H            1 SFG491   0.0000
    29 H2          45.2221    64.2668    32.6127 H            1 SFG491   0.0000
    30 HA          44.7414    65.2343    30.5674 H            1 SFG491   0.0000
    31 HB1         44.0351    63.3409    28.8818 H            1 SFG491   0.0000
    32 HB2         45.2616    62.6298    29.6922 H            1 SFG491   0.0000
    33 HG1         46.0016    63.6643    27.6833 H            1 SFG491   0.0000
    34 HG2         46.7510    64.2716    29.0009 H            1 SFG491   0.0000
    35 HD          44.6466    65.9461    28.4061 H            1 SFG491   0.0000
    36 HE1         45.2348    66.6069    26.2187 H            1 SFG491   0.0000
    37 HE2         46.3378    65.4042    26.1586 H            1 SFG491   0.0000
    38 H5'1        46.2023    67.6271    27.9075 H            1 SFG491   0.0000
    39 H5'2        47.4071    66.5255    27.8710 H            1 SFG491   0.0000
    40 H4'         46.1696    67.6589    30.1915 H            1 SFG491   0.0000
    41 H3'         48.8801    67.6718    29.2935 H            1 SFG491   0.0000
    42 H15         48.7258    69.9202    29.5800 H            1 SFG491   0.0000
    43 H2'         49.5735    68.0659    31.4155 H            1 SFG491   0.0000
    44 H17         46.8828    68.6416    32.0855 H            1 SFG491   0.0000
    45 H1'         47.8833    66.3938    32.5555 H            1 SFG491   0.0000
    46 H19         49.3780    64.8813    29.5145 H            1 SFG491   0.0000
    47 H20         54.0014    62.8262    33.1664 H            1 SFG491   0.0000
    48 H21         53.3211    62.6691    31.5813 H            1 SFG491   0.0000
    49 H22         51.4151    65.5664    35.4901 H            1 SFG491   0.0000
    50 H23         45.0981    62.7799    31.9490 H            1 SFG491   0.0000
    51 HE3         44.7461    65.0489    26.2411 H            1 SFG491   0.0000
@<TRIPOS>BOND
     1    1    2       1
     2    2    3       1
     3    2    6       1
     4    3    4      ar
     5    3    5      ar
     6    6    7       1
     7    7    8       1
     8    8    9       1
     9    8   10       1
    10   10   11       1
    11   11   12       1
    12   11   13       1
    13   12   17       1
    14   13   14       1
    15   13   15       1
    16   15   16       1
    17   15   17       1
    18   17   18       1
    19   18   19       1
    20   18   27       1
    21   19   20       2
    22   20   21       1
    23   21   22      ar
    24   21   27      ar
    25   22   23       1
    26   22   24      ar
    27   24   25      ar
    28   25   26      ar
    29   26   27      ar
    30    1   28       1
    31    1   29       1
    32    2   30       1
    33    1   50       1
    34    6   31       1
    35    6   32       1
    36    7   33       1
    37    7   34       1
    38    8   35       1
    39    9   36       1
    40    9   37       1
    41   10   38       1
    42   10   39       1
    43   11   40       1
    44   13   41       1
    45   14   42       1
    46   15   43       1
    47   16   44       1
    48   17   45       1
    49   19   46       1
    50   23   47       1
    51   23   48       1
    52   25   49       1
    53    9   51       1
@<TRIPOS>SUBSTRUCTURE
     1 SFG491      1 GROUP             4 A     SFG     0 **** SFG A 491
