@<TRIPOS>MOLECULE
4a6e_ASE_1_ligand
   30    31     1     0     0
SMALL
NO_CHARGES


@<TRIPOS>ATOM
     1 C1           0.8750    30.6770    44.0930 C.ar         1 ASE1350   0.0000
     2 C2           1.9730    31.1210    43.3590 C.ar         1 ASE1350   0.0000
     3 C3           1.8870    32.4420    42.8760 C.ar         1 ASE1350   0.0000
     4 C4          -0.2890    31.4560    44.3580 C.ar         1 ASE1350   0.0000
     5 C5          -0.3470    32.7690    43.8810 C.ar         1 ASE1350   0.0000
     6 C6           0.7230    33.2960    43.1350 C.ar         1 ASE1350   0.0000
     7 C7           2.8160    33.2690    42.0830 C.2          1 ASE1350   0.0000
     8 C8           2.2320    34.5000    41.9220 C.2          1 ASE1350   0.0000
     9 N9           0.9770    34.5460    42.5310 N.pl3        1 ASE1350   0.0000
    10 O10          0.9320    29.4400    44.6090 O.3          1 ASE1350   0.0000
    11 C11          4.1780    32.7880    41.6920 C.3          1 ASE1350   0.0000
    12 C12          5.1300    33.2390    42.8800 C.3          1 ASE1350   0.0000
    13 N13          5.3410    34.7040    42.8190 N.am         1 ASE1350   0.0000
    14 C14          5.0120    35.5340    43.9060 C.2          1 ASE1350   0.0000
    15 C15          5.2210    37.0400    43.7440 C.3          1 ASE1350   0.0000
    16 O16          4.5440    35.1010    45.0110 O.2          1 ASE1350   0.0000
    17 H1           2.7690    30.5408    43.1865 H            1 ASE1350   0.0000
    18 H2          -1.0517    31.0697    44.8767 H            1 ASE1350   0.0000
    19 H3          -1.1500    33.3341    44.0703 H            1 ASE1350   0.0000
    20 H4           2.6509    35.2646    41.4322 H            1 ASE1350   0.0000
    21 H5           0.3606    35.3334    42.5382 H            1 ASE1350   0.0000
    22 H6           0.1641    29.0847    45.1420 H            1 ASE1350   0.0000
    23 H7           4.4659    33.2090    40.8318 H            1 ASE1350   0.0000
    24 H8           4.1847    31.7928    41.5947 H            1 ASE1350   0.0000
    25 H9           6.0104    32.7722    42.7965 H            1 ASE1350   0.0000
    26 H10          4.7075    32.9997    43.7542 H            1 ASE1350   0.0000
    27 H11          5.7244    35.1104    41.9897 H            1 ASE1350   0.0000
    28 H12          4.9490    37.5067    44.5856 H            1 ASE1350   0.0000
    29 H13          6.1860    37.2245    43.5575 H            1 ASE1350   0.0000
    30 H14          4.6647    37.3738    42.9830 H            1 ASE1350   0.0000
@<TRIPOS>BOND
     1    1    2      ar
     2    1    4      ar
     3    1   10       1
     4    2    3      ar
     5    3    6      ar
     6    3    7       1
     7    4    5      ar
     8    5    6      ar
     9    6    9       1
    10    7    8       2
    11    7   11       1
    12    8    9       1
    13   11   12       1
    14   12   13       1
    15   13   14      am
    16   14   15       1
    17   14   16       2
    18    2   17       1
    19    4   18       1
    20    5   19       1
    21    8   20       1
    22    9   21       1
    23   10   22       1
    24   11   23       1
    25   11   24       1
    26   12   25       1
    27   12   26       1
    28   13   27       1
    29   15   28       1
    30   15   29       1
    31   15   30       1
@<TRIPOS>SUBSTRUCTURE
     1 ASE1350     1 GROUP             4 A     ASE     0 **** ASE A1350
