@<TRIPOS>MOLECULE
4fln_UNK_UNK_TRP_UNK_2_ligand
   57    58     4     0     0
SMALL
NO_CHARGES


@<TRIPOS>ATOM
     1 N           18.9600     1.1510    43.3610 N.4          1 UNK114   1.0000
     2 CA          18.7080     0.0400    42.4440 C.3          1 UNK114   0.0000
     3 C           18.5640     0.5160    40.9850 C.2          1 UNK114   0.0000
     4 O           17.5950     1.1940    40.6480 O.2          1 UNK114   0.0000
     5 CB          17.4710    -0.7620    42.8920 C.3          1 UNK114   0.0000
     6 H1          19.0467     0.8004    44.2935 H            1 UNK114   0.0000
     7 H2          19.8067     1.6141    43.0989 H            1 UNK114   0.0000
     8 HA          19.4974    -0.5724    42.4862 H            1 UNK114   0.0000
     9 HB1         17.3140    -1.5163    42.2546 H            1 UNK114   0.0000
    10 HB2         17.6254    -1.1278    43.8098 H            1 UNK114   0.0000
    11 HB3         16.6708    -0.1624    42.9024 H            1 UNK114   0.0000
    12 N           19.5250     0.1560    40.1310 N.am         2 UNK115   0.0000
    13 CA          19.5560     0.6330    38.7430 C.3          2 UNK115   0.0000
    14 C           19.3610    -0.4650    37.6860 C.2          2 UNK115   0.0000
    15 O           19.7710    -1.6150    37.8830 O.2          2 UNK115   0.0000
    16 CB          20.8500     1.4070    38.4750 C.3          2 UNK115   0.0000
    17 H7          20.2475    -0.4588    40.4473 H            2 UNK115   0.0000
    18 H8          18.8002     1.2793    38.6378 H            2 UNK115   0.0000
    19 H9          20.8576     1.7256    37.5271 H            2 UNK115   0.0000
    20 H10         20.9021     2.1929    39.0912 H            2 UNK115   0.0000
    21 H11         21.6353     0.8080    38.6317 H            2 UNK115   0.0000
    22 N           18.7310    -0.0950    36.5690 N.am         3 TRP116   0.0000
    23 CA          18.5190    -1.0050    35.4390 C.3          3 TRP116   0.0000
    24 C           19.6970    -0.9840    34.4820 C.2          3 TRP116   0.0000
    25 O           20.2210     0.0770    34.1500 O.2          3 TRP116   0.0000
    26 CB          17.2460    -0.6480    34.6610 C.3          3 TRP116   0.0000
    27 CG          15.9660    -1.2500    35.2010 C.2          3 TRP116   0.0000
    28 CD1         15.0040    -0.6090    35.9270 C.2          3 TRP116   0.0000
    29 CD2         15.5100    -2.6040    35.0410 C.ar         3 TRP116   0.0000
    30 NE1         13.9850    -1.4800    36.2340 N.pl3        3 TRP116   0.0000
    31 CE2         14.2710    -2.7100    35.7040 C.ar         3 TRP116   0.0000
    32 CE3         16.0310    -3.7340    34.4060 C.ar         3 TRP116   0.0000
    33 CZ2         13.5430    -3.9000    35.7500 C.ar         3 TRP116   0.0000
    34 CZ3         15.3060    -4.9180    34.4530 C.ar         3 TRP116   0.0000
    35 CH2         14.0760    -4.9910    35.1200 C.ar         3 TRP116   0.0000
    36 H12         18.3892     0.8422    36.4999 H            3 TRP116   0.0000
    37 H13         18.4199    -1.9336    35.7965 H            3 TRP116   0.0000
    38 H14         17.3616    -0.9625    33.7188 H            3 TRP116   0.0000
    39 H15         17.1472     0.3471    34.6705 H            3 TRP116   0.0000
    40 HD1         15.0356     0.3535    36.1963 H            3 TRP116   0.0000
    41 HE1         13.1659    -1.2517    36.7603 H            3 TRP116   0.0000
    42 HE3         16.9080    -3.6914    33.9274 H            3 TRP116   0.0000
    43 HZ2         12.6649    -3.9530    36.2256 H            3 TRP116   0.0000
    44 HZ3         15.6688    -5.7336    34.0023 H            3 TRP116   0.0000
    45 HH2         13.5778    -5.8579    35.1358 H            3 TRP116   0.0000
    46 N           20.0950    -2.1660    34.0240 N.am         4 UNK117   0.0000
    47 CA          21.2300    -2.3070    33.1180 C.3          4 UNK117   0.0000
    48 C           20.9910    -3.4200    32.1020 C.2          4 UNK117   0.0000
    49 O           20.4500    -3.1830    31.0220 O.2          4 UNK117   0.0000
    50 CB          22.4930    -2.5710    33.9050 C.3          4 UNK117   0.0000
    51 H22         19.6000    -2.9866    34.3098 H            4 UNK117   0.0000
    52 H23         21.3437    -1.4469    32.6208 H            4 UNK117   0.0000
    53 H24         21.2775    -4.3538    32.3162 H            4 UNK117   0.0000
    54 H25         23.2642    -2.6660    33.2756 H            4 UNK117   0.0000
    55 H26         22.6633    -1.8075    34.5280 H            4 UNK117   0.0000
    56 H27         22.3872    -3.4142    34.4321 H            4 UNK117   0.0000
    57 H28         18.1989     1.7982    43.3176 H            4 UNK117   0.0000
@<TRIPOS>BOND
     1    1    2       1
     2    2    3       1
     3    2    5       1
     4    3    4       2
     5    1    6       1
     6    1    7       1
     7    2    8       1
     8    3   12      am
     9    5    9       1
    10    5   10       1
    11    5   11       1
    12   12   13       1
    13   13   14       1
    14   13   16       1
    15   14   15       2
    16   16   21       1
    17   12   17       1
    18   13   18       1
    19   14   22      am
    20   16   19       1
    21   16   20       1
    22   22   23       1
    23   23   26       1
    24   23   24       1
    25   26   27       1
    26   27   29       1
    27   27   28       2
    28   29   32      ar
    29   29   31      ar
    30   32   34      ar
    31   34   35      ar
    32   31   33      ar
    33   31   30       1
    34   33   35      ar
    35   30   28       1
    36   24   25       2
    37   35   45       1
    38   22   36       1
    39   23   37       1
    40   24   46      am
    41   26   38       1
    42   26   39       1
    43   28   40       1
    44   30   41       1
    45   32   42       1
    46   33   43       1
    47   34   44       1
    48   46   47       1
    49   47   48       1
    50   47   50       1
    51   48   49       2
    52   50   56       1
    53   46   51       1
    54   47   52       1
    55   48   53       1
    56   50   54       1
    57   50   55       1
    58    1   57       1
@<TRIPOS>SUBSTRUCTURE
     1 UNK114      1 GROUP             4 F     UNK     0 **** UNK F 114
     2 UNK115     12 GROUP             4 F     UNK     0 **** UNK F 115
     3 TRP116     22 RESIDUE           4 F     TRP     0 **** TRP F 116
     4 UNK117     46 GROUP             4 F     UNK     0 **** UNK F 117
