@<TRIPOS>MOLECULE
2zt7_ATP_1_ligand
   43    45     1     0     0
SMALL
NO_CHARGES


@<TRIPOS>ATOM
     1 PG          31.7460   -18.0630    73.8900 P.3          1 ATP1200   0.0000
     2 O1G         30.9910   -18.5650    72.5610 O.co2        1 ATP1200   0.0000
     3 O2G         32.9640   -17.2830    73.5770 O.co2        1 ATP1200  -1.0000
     4 O3G         32.0830   -19.3930    74.7300 O.co2        1 ATP1200  -1.0000
     5 PB          31.1380   -16.1550    75.8340 P.3          1 ATP1200   0.0000
     6 O1B         30.9110   -16.8500    77.2690 O.co2        1 ATP1200   0.0000
     7 O2B         32.5360   -15.7180    75.6260 O.co2        1 ATP1200  -1.0000
     8 O3B         30.6600   -17.2430    74.7490 O.3          1 ATP1200   0.0000
     9 PA          29.5650   -14.2470    77.1210 P.3          1 ATP1200   0.0000
    10 O1A         30.8290   -13.4400    77.7110 O.co2        1 ATP1200   0.0000
    11 O2A         29.0490   -15.2470    78.0840 O.co2        1 ATP1200  -1.0000
    12 O3A         30.0880   -14.9350    75.7600 O.3          1 ATP1200   0.0000
    13 O5'         28.4740   -13.1280    76.7260 O.3          1 ATP1200   0.0000
    14 C5'         27.1510   -13.5220    76.3500 C.3          1 ATP1200   0.0000
    15 C4'         27.1560   -14.0720    74.9230 C.3          1 ATP1200   0.0000
    16 O4'         27.3430   -13.0190    73.9650 O.3          1 ATP1200   0.0000
    17 C3'         25.8330   -14.6610    74.4400 C.3          1 ATP1200   0.0000
    18 O3'         25.5680   -15.8880    75.1260 O.3          1 ATP1200   0.0000
    19 C2'         26.2500   -14.8990    72.9910 C.3          1 ATP1200   0.0000
    20 O2'         25.0830   -14.9940    72.1720 O.3          1 ATP1200   0.0000
    21 C1'         26.9860   -13.5890    72.6920 C.3          1 ATP1200   0.0000
    22 N9          28.2180   -13.8360    71.9110 N.pl3        1 ATP1200   0.0000
    23 C8          29.4390   -13.9860    72.4230 C.2          1 ATP1200   0.0000
    24 N7          30.3250   -14.1110    71.4390 N.2          1 ATP1200   0.0000
    25 C5          29.6630   -14.0430    70.2860 C.ar         1 ATP1200   0.0000
    26 C6          30.0430   -14.0950    68.9530 C.ar         1 ATP1200   0.0000
    27 N6          31.3240   -14.2280    68.6200 N.pl3        1 ATP1200   0.0000
    28 N1          29.0990   -13.9870    68.0060 N.ar         1 ATP1200   0.0000
    29 C2          27.8260   -13.8330    68.3280 C.ar         1 ATP1200   0.0000
    30 N3          27.4300   -13.7750    69.5880 N.ar         1 ATP1200   0.0000
    31 C4          28.3190   -13.8740    70.5860 C.ar         1 ATP1200   0.0000
    32 H5'1        26.5431   -12.7294    76.3975 H            1 ATP1200   0.0000
    33 H5'2        26.8253   -14.2299    76.9768 H            1 ATP1200   0.0000
    34 H4'         27.8837   -14.7508    74.8252 H            1 ATP1200   0.0000
    35 H3'         25.0767   -14.0112    74.5165 H            1 ATP1200   0.0000
    36 H5          26.3119   -16.0793    75.7663 H            1 ATP1200   0.0000
    37 H2'         26.8449   -15.6971    72.8952 H            1 ATP1200   0.0000
    38 H7          25.2945   -14.6664    71.2511 H            1 ATP1200   0.0000
    39 H1'         26.3845   -12.9644    72.1939 H            1 ATP1200   0.0000
    40 H9          29.6562   -14.0021    73.3990 H            1 ATP1200   0.0000
    41 H10         31.5889   -14.2646    67.6564 H            1 ATP1200   0.0000
    42 H11         32.0220   -14.2914    69.3332 H            1 ATP1200   0.0000
    43 H12         27.1450   -13.7585    67.5995 H            1 ATP1200   0.0000
@<TRIPOS>BOND
     1    1    2      ar
     2    1    3      ar
     3    1    4      ar
     4    1    8       1
     5    5    6      ar
     6    5    7      ar
     7    5    8       1
     8    5   12       1
     9    9   10      ar
    10    9   11      ar
    11    9   12       1
    12    9   13       1
    13   13   14       1
    14   14   15       1
    15   15   16       1
    16   15   17       1
    17   16   21       1
    18   17   18       1
    19   17   19       1
    20   19   20       1
    21   19   21       1
    22   21   22       1
    23   22   23       1
    24   22   31       1
    25   23   24       2
    26   24   25       1
    27   25   26      ar
    28   25   31      ar
    29   26   27       1
    30   26   28      ar
    31   28   29      ar
    32   29   30      ar
    33   30   31      ar
    34   29   43       1
    35   27   42       1
    36   27   41       1
    37   23   40       1
    38   14   32       1
    39   14   33       1
    40   15   34       1
    41   17   35       1
    42   18   36       1
    43   19   37       1
    44   20   38       1
    45   21   39       1
@<TRIPOS>SUBSTRUCTURE
     1 ATP1200     1 GROUP             4 A     ATP     0 **** ATP A1200
