@<TRIPOS>MOLECULE
3oa2_NAD_3_ligand
   70    74     1     0     0
SMALL
NO_CHARGES


@<TRIPOS>ATOM
     1 PA          65.9720    20.3830    30.8520 P.3          1 NAD317   0.0000
     2 O1A         64.7400    19.5780    30.7260 O.co2        1 NAD317   0.0000
     3 O2A         67.3030    19.5380    31.0870 O.co2        1 NAD317  -1.0000
     4 O5B         66.0100    21.4100    32.0510 O.3          1 NAD317   0.0000
     5 C5B         64.8170    22.0410    32.3260 C.3          1 NAD317   0.0000
     6 C4B         64.6290    22.2680    33.8170 C.3          1 NAD317   0.0000
     7 O4B         63.4460    23.0240    34.0830 O.3          1 NAD317   0.0000
     8 C3B         64.5130    20.8940    34.5420 C.3          1 NAD317   0.0000
     9 O3B         65.5650    20.7020    35.5000 O.3          1 NAD317   0.0000
    10 C2B         63.0430    20.9480    35.0300 C.3          1 NAD317   0.0000
    11 O2B         62.9520    20.2060    36.2410 O.3          1 NAD317   0.0000
    12 C1B         62.9110    22.4520    35.3200 C.3          1 NAD317   0.0000
    13 N9A         61.5060    22.8070    35.4390 N.pl3        1 NAD317   0.0000
    14 C8A         60.3850    22.2300    34.9100 C.2          1 NAD317   0.0000
    15 N7A         59.3490    22.9280    35.2720 N.2          1 NAD317   0.0000
    16 C5A         59.7640    23.9600    36.0640 C.ar         1 NAD317   0.0000
    17 C6A         59.1290    25.0310    36.7410 C.ar         1 NAD317   0.0000
    18 N6A         57.7590    25.2310    36.7650 N.pl3        1 NAD317   0.0000
    19 N1A         59.9060    25.8910    37.4110 N.ar         1 NAD317   0.0000
    20 C2A         61.2250    25.7210    37.4650 C.ar         1 NAD317   0.0000
    21 N3A         61.8820    24.7530    36.8470 N.ar         1 NAD317   0.0000
    22 C4A         61.1590    23.8710    36.1620 C.ar         1 NAD317   0.0000
    23 O3          66.0160    21.1310    29.4140 O.3          1 NAD317   0.0000
    24 PN          67.2360    22.0870    28.8990 P.3          1 NAD317   0.0000
    25 O1N         67.8700    21.3300    27.6960 O.co2        1 NAD317   0.0000
    26 O2N         68.1600    22.4690    29.9590 O.co2        1 NAD317  -1.0000
    27 O5D         66.5120    23.2950    28.1610 O.3          1 NAD317   0.0000
    28 C5D         66.2710    24.3730    28.9920 C.3          1 NAD317   0.0000
    29 C4D         65.8420    25.6200    28.2050 C.3          1 NAD317   0.0000
    30 O4D         67.1110    25.9890    27.5590 O.3          1 NAD317   0.0000
    31 C3D         64.8830    25.3850    27.0070 C.3          1 NAD317   0.0000
    32 O3D         64.1620    26.6060    26.7970 O.3          1 NAD317   0.0000
    33 C2D         65.8190    25.0540    25.8130 C.3          1 NAD317   0.0000
    34 O2D         65.2510    25.3980    24.5330 O.3          1 NAD317   0.0000
    35 C1D         66.9750    26.0040    26.1230 C.3          1 NAD317   0.0000
    36 N1N         68.2420    25.5350    25.5560 N.ar         1 NAD317   1.0000
    37 C2N         69.0330    26.4250    24.9550 C.ar         1 NAD317   0.0000
    38 C3N         70.2390    26.0140    24.4230 C.ar         1 NAD317   0.0000
    39 C7N         71.1100    27.0010    23.7720 C.2          1 NAD317   0.0000
    40 O7N         71.9290    26.5750    22.9680 O.2          1 NAD317   0.0000
    41 N7N         71.0140    28.2980    24.1820 N.am         1 NAD317   0.0000
    42 C4N         70.6800    24.6820    24.5520 C.ar         1 NAD317   0.0000
    43 C5N         69.8480    23.8000    25.2430 C.ar         1 NAD317   0.0000
    44 C6N         68.6280    24.2570    25.7410 C.ar         1 NAD317   0.0000
    45 H5B1        64.0657    21.4745    31.9876 H            1 NAD317   0.0000
    46 H5B2        64.8037    22.9255    31.8597 H            1 NAD317   0.0000
    47 H4B         65.4211    22.7619    34.1757 H            1 NAD317   0.0000
    48 H3B         64.5850    20.1726    33.8532 H            1 NAD317   0.0000
    49 H5          65.5230    21.4242    36.1904 H            1 NAD317   0.0000
    50 H2B         62.3959    20.6321    34.3362 H            1 NAD317   0.0000
    51 H7          63.5577    20.6106    36.9262 H            1 NAD317   0.0000
    52 H1B         63.4391    22.7290    36.1227 H            1 NAD317   0.0000
    53 H8A         60.3650    21.4086    34.3400 H            1 NAD317   0.0000
    54 H6A1        57.3759    26.0089    37.2631 H            1 NAD317   0.0000
    55 H6A2        57.1527    24.5975    36.2842 H            1 NAD317   0.0000
    56 H2A         61.7560    26.3696    38.0103 H            1 NAD317   0.0000
    57 H5D1        67.1067    24.5829    29.4994 H            1 NAD317   0.0000
    58 H5D2        65.5436    24.1299    29.6337 H            1 NAD317   0.0000
    59 H4D         65.5095    26.3438    28.8096 H            1 NAD317   0.0000
    60 H3D         64.2575    24.6271    27.1924 H            1 NAD317   0.0000
    61 H17         63.2580    26.3992    26.4228 H            1 NAD317   0.0000
    62 H2D         66.1154    24.0992    25.8357 H            1 NAD317   0.0000
    63 H19         65.5020    26.3372    24.2985 H            1 NAD317   0.0000
    64 H1D         66.7666    26.9272    25.8000 H            1 NAD317   0.0000
    65 H2N         68.7545    27.3833    24.8902 H            1 NAD317   0.0000
    66 H7N1        71.5907    28.9990    23.7624 H            1 NAD317   0.0000
    67 H7N2        70.3669    28.5481    24.9022 H            1 NAD317   0.0000
    68 H4N         71.5518    24.3815    24.1650 H            1 NAD317   0.0000
    69 H5N         70.1241    22.8487    25.3799 H            1 NAD317   0.0000
    70 H6N         68.0324    23.6287    26.2415 H            1 NAD317   0.0000
@<TRIPOS>BOND
     1    1    2      ar
     2    1    3      ar
     3    1    4       1
     4    1   23       1
     5    4    5       1
     6    5    6       1
     7    6    7       1
     8    6    8       1
     9    7   12       1
    10    8    9       1
    11    8   10       1
    12   10   11       1
    13   10   12       1
    14   12   13       1
    15   13   14       1
    16   13   22       1
    17   14   15       2
    18   15   16       1
    19   16   17      ar
    20   16   22      ar
    21   17   18       1
    22   17   19      ar
    23   19   20      ar
    24   20   21      ar
    25   21   22      ar
    26   23   24       1
    27   24   25      ar
    28   24   26      ar
    29   24   27       1
    30   27   28       1
    31   28   29       1
    32   29   30       1
    33   29   31       1
    34   30   35       1
    35   31   32       1
    36   31   33       1
    37   33   34       1
    38   33   35       1
    39   35   36       1
    40   36   37      ar
    41   36   44      ar
    42   37   38      ar
    43   38   39       1
    44   38   42      ar
    45   39   40       2
    46   39   41      am
    47   42   43      ar
    48   43   44      ar
    49   44   70       1
    50    5   45       1
    51    5   46       1
    52    6   47       1
    53    8   48       1
    54    9   49       1
    55   10   50       1
    56   11   51       1
    57   12   52       1
    58   14   53       1
    59   18   54       1
    60   18   55       1
    61   20   56       1
    62   43   69       1
    63   28   57       1
    64   28   58       1
    65   29   59       1
    66   31   60       1
    67   32   61       1
    68   33   62       1
    69   34   63       1
    70   35   64       1
    71   37   65       1
    72   41   66       1
    73   41   67       1
    74   42   68       1
@<TRIPOS>SUBSTRUCTURE
     1 NAD317      1 GROUP             4 C     NAD     0 **** NAD C 317
