@<TRIPOS>MOLECULE
3cxh_SMA_1_ligand
   79    80     1     0     0
SMALL
NO_CHARGES


@<TRIPOS>ATOM
     1 C2          15.6630   -22.7000    70.0640 C.2          1 SMA4005   0.0000
     2 C3          14.6410   -23.2200    70.8150 C.2          1 SMA4005   0.0000
     3 C3M         13.5910   -22.3610    71.4000 C.3          1 SMA4005   0.0000
     4 C4          14.5470   -24.6650    71.0790 C.2          1 SMA4005   0.0000
     5 C4A         15.6170   -25.4770    70.4820 C.ar         1 SMA4005   0.0000
     6 C5          15.6860   -26.8890    70.6490 C.ar         1 SMA4005   0.0000
     7 C5M         15.0230   -28.6930    72.0440 C.3          1 SMA4005   0.0000
     8 C6          16.7000   -27.6460    70.0730 C.ar         1 SMA4005   0.0000
     9 C7          17.6790   -27.0190    69.3080 C.ar         1 SMA4005   0.0000
    10 C7M         18.9520   -29.0500    69.1260 C.3          1 SMA4005   0.0000
    11 C8          17.6620   -25.6060    69.1120 C.ar         1 SMA4005   0.0000
    12 C8A         16.6210   -24.8540    69.7130 C.ar         1 SMA4005   0.0000
    13 C9          15.8960   -21.2360    69.7410 C.3          1 SMA4005   0.0000
    14 C10         15.2580   -20.7220    68.4640 C.3          1 SMA4005   0.0000
    15 C11         15.9840   -19.4620    67.9600 C.3          1 SMA4005   0.0000
    16 C12         15.1270   -18.6660    66.9450 C.3          1 SMA4005   0.0000
    17 C13         14.7010   -19.4880    65.7250 C.3          1 SMA4005   0.0000
    18 C14         13.9920   -18.5510    64.7260 C.3          1 SMA4005   0.0000
    19 C15         13.3100   -19.3700    63.6670 C.2          1 SMA4005   0.0000
    20 C16         13.6760   -19.4250    62.3780 C.2          1 SMA4005   0.0000
    21 C17         12.9990   -20.2300    61.3720 C.2          1 SMA4005   0.0000
    22 C18         13.4550   -20.2840    60.1090 C.2          1 SMA4005   0.0000
    23 C19         12.8830   -21.0410    58.9990 C.2          1 SMA4005   0.0000
    24 C20         13.4210   -20.8900    57.7630 C.2          1 SMA4005   0.0000
    25 C21         12.9730   -21.5690    56.5360 C.3          1 SMA4005   0.0000
    26 C22         16.3700   -18.5360    69.1030 C.3          1 SMA4005   0.0000
    27 C23         13.7760   -16.8020    67.6120 C.3          1 SMA4005   0.0000
    28 C24         15.8870   -20.1780    65.0740 C.3          1 SMA4005   0.0000
    29 C25         14.6070   -16.3440    64.0210 C.3          1 SMA4005   0.0000
    30 C26         11.7370   -21.9370    59.2800 C.3          1 SMA4005   0.0000
    31 O1          16.6710   -23.4840    69.4920 O.2          1 SMA4005   0.0000
    32 O4          13.6410   -25.1520    71.7570 O.2          1 SMA4005   0.0000
    33 O5          14.7040   -27.4450    71.4110 O.3          1 SMA4005   0.0000
    34 O7          18.7240   -27.6990    68.6960 O.3          1 SMA4005   0.0000
    35 O8          18.5910   -24.9140    68.3730 O.3          1 SMA4005   0.0000
    36 O12         13.9140   -18.2120    67.5730 O.3          1 SMA4005   0.0000
    37 O14         15.0110   -17.6980    64.1960 O.3          1 SMA4005   0.0000
    38 H3M1        12.9421   -22.9271    71.9084 H            1 SMA4005   0.0000
    39 H3M2        14.0102   -21.6968    72.0190 H            1 SMA4005   0.0000
    40 H3M3        13.1099   -21.8776    70.6686 H            1 SMA4005   0.0000
    41 H5M1        14.2361   -29.0084    72.5744 H            1 SMA4005   0.0000
    42 H5M2        15.2486   -29.3727    71.3461 H            1 SMA4005   0.0000
    43 H5M3        15.8065   -28.5674    72.6526 H            1 SMA4005   0.0000
    44 H7          16.7257   -28.6365    70.2078 H            1 SMA4005   0.0000
    45 H7M1        19.7234   -29.4353    68.6196 H            1 SMA4005   0.0000
    46 H7M2        19.1582   -29.0581    70.1045 H            1 SMA4005   0.0000
    47 H7M3        18.1331   -29.5974    68.9534 H            1 SMA4005   0.0000
    48 H11         16.8830   -21.0930    69.6679 H            1 SMA4005   0.0000
    49 H12         15.5362   -20.6949    70.5011 H            1 SMA4005   0.0000
    50 H13         14.2998   -20.4989    68.6429 H            1 SMA4005   0.0000
    51 H14         15.3094   -21.4328    67.7625 H            1 SMA4005   0.0000
    52 H15         16.8226   -19.7511    67.4984 H            1 SMA4005   0.0000
    53 H16         15.6480   -17.8711    66.6342 H            1 SMA4005   0.0000
    54 H17         14.0505   -20.1865    66.0231 H            1 SMA4005   0.0000
    55 H18         13.3130   -17.9991    65.2101 H            1 SMA4005   0.0000
    56 H19         12.5208   -19.9174    63.9453 H            1 SMA4005   0.0000
    57 H20         14.4628   -18.8791    62.0902 H            1 SMA4005   0.0000
    58 H21         12.1831   -20.7502    61.6242 H            1 SMA4005   0.0000
    59 H22         14.2747   -19.7478    59.9075 H            1 SMA4005   0.0000
    60 H23         14.1926   -20.2597    57.6774 H            1 SMA4005   0.0000
    61 H24         13.5419   -21.2774    55.7670 H            1 SMA4005   0.0000
    62 H25         13.0540   -22.5587    56.6542 H            1 SMA4005   0.0000
    63 H26         12.0188   -21.3321    56.3534 H            1 SMA4005   0.0000
    64 H27         16.8378   -17.7316    68.7368 H            1 SMA4005   0.0000
    65 H28         15.5463   -18.2488    69.5920 H            1 SMA4005   0.0000
    66 H29         16.9796   -19.0187    69.7317 H            1 SMA4005   0.0000
    67 H30         12.9144   -16.5637    68.0601 H            1 SMA4005   0.0000
    68 H31         14.5385   -16.4065    68.1240 H            1 SMA4005   0.0000
    69 H32         13.7777   -16.4410    66.6794 H            1 SMA4005   0.0000
    70 H33         15.5738   -20.7041    64.2834 H            1 SMA4005   0.0000
    71 H34         16.5499   -19.4911    64.7760 H            1 SMA4005   0.0000
    72 H35         16.3183   -20.7931    65.7340 H            1 SMA4005   0.0000
    73 H36         15.3692   -15.8141    63.6492 H            1 SMA4005   0.0000
    74 H37         13.8342   -16.3060    63.3875 H            1 SMA4005   0.0000
    75 H38         14.3338   -15.9609    64.9034 H            1 SMA4005   0.0000
    76 H39         11.4510   -22.3876    58.4343 H            1 SMA4005   0.0000
    77 H40         12.0102   -22.6276    59.9497 H            1 SMA4005   0.0000
    78 H41         10.9764   -21.4006    59.6457 H            1 SMA4005   0.0000
    79 H42         19.3421   -25.4031    67.9296 H            1 SMA4005   0.0000
@<TRIPOS>BOND
     1    1    2       2
     2    1   13       1
     3    1   31       1
     4    2    3       1
     5    2    4       1
     6    4    5       1
     7    4   32       2
     8    5    6      ar
     9    5   12      ar
    10    6    8      ar
    11    6   33       1
    12    7   33       1
    13    8    9      ar
    14    9   11      ar
    15    9   34       1
    16   10   34       1
    17   11   12      ar
    18   11   35       1
    19   12   31       1
    20   13   14       1
    21   14   15       1
    22   15   16       1
    23   15   26       1
    24   16   17       1
    25   16   36       1
    26   17   18       1
    27   17   28       1
    28   18   19       1
    29   18   37       1
    30   19   20       2
    31   20   21       1
    32   21   22       2
    33   22   23       1
    34   23   24       2
    35   23   30       1
    36   24   25       1
    37   27   36       1
    38   29   37       1
    39    3   38       1
    40    3   39       1
    41    3   40       1
    42    7   41       1
    43    7   42       1
    44    7   43       1
    45    8   44       1
    46   10   45       1
    47   10   46       1
    48   10   47       1
    49   13   48       1
    50   13   49       1
    51   14   50       1
    52   14   51       1
    53   15   52       1
    54   16   53       1
    55   17   54       1
    56   18   55       1
    57   19   56       1
    58   20   57       1
    59   21   58       1
    60   22   59       1
    61   24   60       1
    62   25   61       1
    63   25   62       1
    64   25   63       1
    65   26   64       1
    66   26   65       1
    67   26   66       1
    68   27   67       1
    69   27   68       1
    70   27   69       1
    71   28   70       1
    72   28   71       1
    73   28   72       1
    74   29   73       1
    75   29   74       1
    76   29   75       1
    77   30   76       1
    78   30   77       1
    79   30   78       1
    80   35   79       1
@<TRIPOS>SUBSTRUCTURE
     1 SMA4005     1 GROUP             4 C     SMA     0 **** SMA C4005
