@<TRIPOS>MOLECULE
1aux_AGS_1_ligand
   43    45     1     0     0
SMALL
NO_CHARGES


@<TRIPOS>ATOM
     1 PG          21.1730    31.0120    21.8090 P.3          1 AGS800   0.0000
     2 S1G         21.2460    30.2540    23.6130 S.2          1 AGS800   0.0000
     3 O2G         19.7600    31.5930    21.4800 O.co2        1 AGS800  -1.0000
     4 O3G         22.1810    32.1090    21.6650 O.co2        1 AGS800  -1.0000
     5 PB          21.7870    29.7030    19.2010 P.3          1 AGS800   0.0000
     6 O1B         20.8580    28.6810    18.6000 O.co2        1 AGS800   0.0000
     7 O2B         21.7580    31.1040    18.6660 O.co2        1 AGS800  -1.0000
     8 O3B         21.5920    29.8050    20.7710 O.3          1 AGS800   0.0000
     9 PA          24.6530    29.4550    19.9310 P.3          1 AGS800   0.0000
    10 O1A         25.7880    29.2770    18.9560 O.co2        1 AGS800   0.0000
    11 O2A         24.5930    30.8130    20.5850 O.co2        1 AGS800  -1.0000
    12 O3A         23.2890    29.1760    19.0890 O.3          1 AGS800   0.0000
    13 O5'         24.5970    28.2190    20.9930 O.3          1 AGS800   0.0000
    14 C5'         23.9190    28.5200    22.2410 C.3          1 AGS800   0.0000
    15 C4'         24.8550    28.5200    23.4590 C.3          1 AGS800   0.0000
    16 O4'         25.7700    27.3750    23.3670 O.3          1 AGS800   0.0000
    17 C3'         25.7950    29.7230    23.6300 C.3          1 AGS800   0.0000
    18 O3'         25.1640    30.8570    24.2340 O.3          1 AGS800   0.0000
    19 C2'         26.9890    29.1170    24.4190 C.3          1 AGS800   0.0000
    20 O2'         26.9010    29.2060    25.8320 O.3          1 AGS800   0.0000
    21 C1'         27.0600    27.6830    23.9430 C.3          1 AGS800   0.0000
    22 N9          28.1380    27.4120    22.9130 N.pl3        1 AGS800   0.0000
    23 C8          27.9870    27.7970    21.6020 C.2          1 AGS800   0.0000
    24 N7          29.0200    27.5120    20.8030 N.2          1 AGS800   0.0000
    25 C5          29.9340    26.9210    21.6450 C.ar         1 AGS800   0.0000
    26 C6          31.2570    26.3980    21.4340 C.ar         1 AGS800   0.0000
    27 N6          31.9050    26.4030    20.2440 N.pl3        1 AGS800   0.0000
    28 N1          31.8820    25.8680    22.5120 N.ar         1 AGS800   0.0000
    29 C2          31.2460    25.8490    23.7150 C.ar         1 AGS800   0.0000
    30 N3          30.0230    26.3120    24.0370 N.ar         1 AGS800   0.0000
    31 C4          29.4070    26.8570    22.9580 C.ar         1 AGS800   0.0000
    32 H5'1        23.2069    27.8336    22.3885 H            1 AGS800   0.0000
    33 H5'2        23.4994    29.4244    22.1637 H            1 AGS800   0.0000
    34 H4'         24.3033    28.4238    24.2874 H            1 AGS800   0.0000
    35 H3'         26.1237    29.9936    22.7252 H            1 AGS800   0.0000
    36 H5          25.8259    31.6020    24.3166 H            1 AGS800   0.0000
    37 H2'         27.8242    29.5839    24.1284 H            1 AGS800   0.0000
    38 H7          27.7123    28.7905    26.2433 H            1 AGS800   0.0000
    39 H1'         27.2112    27.0881    24.7325 H            1 AGS800   0.0000
    40 H9          27.1636    28.2572    21.2700 H            1 AGS800   0.0000
    41 H10         32.8262    26.0202    20.1747 H            1 AGS800   0.0000
    42 H11         31.4620    26.7895    19.4351 H            1 AGS800   0.0000
    43 H12         31.7590    25.4326    24.4656 H            1 AGS800   0.0000
@<TRIPOS>BOND
     1    1    2       2
     2    1    3      ar
     3    1    4      ar
     4    1    8       1
     5    5    6      ar
     6    5    7      ar
     7    5    8       1
     8    5   12       1
     9    9   10      ar
    10    9   11      ar
    11    9   12       1
    12    9   13       1
    13   13   14       1
    14   14   15       1
    15   15   16       1
    16   15   17       1
    17   16   21       1
    18   17   18       1
    19   17   19       1
    20   19   20       1
    21   19   21       1
    22   21   22       1
    23   22   23       1
    24   22   31       1
    25   23   24       2
    26   24   25       1
    27   25   26      ar
    28   25   31      ar
    29   26   27       1
    30   26   28      ar
    31   28   29      ar
    32   29   30      ar
    33   30   31      ar
    34   29   43       1
    35   27   42       1
    36   27   41       1
    37   23   40       1
    38   14   32       1
    39   14   33       1
    40   15   34       1
    41   17   35       1
    42   18   36       1
    43   19   37       1
    44   20   38       1
    45   21   39       1
@<TRIPOS>SUBSTRUCTURE
     1 AGS800      1 GROUP             4 A     AGS     0 **** AGS A 800
