@<TRIPOS>MOLECULE
1uog_P1C_1_ligand
   42    43     1     0     0
SMALL
NO_CHARGES


@<TRIPOS>ATOM
     1 C1           0.6870     9.3320    50.3460 C.2          1 P1C1311   0.0000
     2 C2           0.3770     9.9960    51.6920 C.3          1 P1C1311   0.0000
     3 C3           0.9420    11.4410    51.8020 C.3          1 P1C1311   0.0000
     4 C4           0.9020    11.9960    53.2560 C.3          1 P1C1311   0.0000
     5 C7           2.1140    12.8300    53.7410 C.3          1 P1C1311   0.0000
     6 C10          1.9210    14.3250    54.0770 C.2          1 P1C1311   0.0000
     7 N11          3.0920    14.9980    54.3830 N.am         1 P1C1311   0.0000
     8 C12          4.0300    14.1940    55.2720 C.3          1 P1C1311   0.0000
     9 C13          4.5910    14.7250    56.5510 C.2          1 P1C1311   0.0000
    10 N14         -1.0560    10.1020    51.9410 N.4          1 P1C1311   1.0000
    11 O15          0.7790    14.7900    54.0620 O.2          1 P1C1311   0.0000
    12 C16          5.5280    14.0490    54.9520 C.3          1 P1C1311   0.0000
    13 O18          4.0120    15.1740    57.5390 O.2          1 P1C1311   0.0000
    14 O19          0.0290     9.4970    49.3690 O.co2        1 P1C1311   0.0000
    15 O20          1.8120     8.7330    50.0970 O.co2        1 P1C1311  -1.0000
    16 N29          5.9890    14.5070    56.3040 N.am         1 P1C1311   0.0000
    17 C30          6.7190    15.7150    56.4010 C.2          1 P1C1311   0.0000
    18 C31          6.6890    16.2440    57.6180 C.2          1 P1C1311   0.0000
    19 C32          7.3830    16.3030    55.3880 C.2          1 P1C1311   0.0000
    20 C33          8.1210    17.5910    55.4870 C.3          1 P1C1311   0.0000
    21 C37          7.5540    15.8100    53.9910 C.3          1 P1C1311   0.0000
    22 O42          6.0220    15.6240    58.5890 O.co2        1 P1C1311   0.0000
    23 O43          7.2400    17.2970    57.8690 O.co2        1 P1C1311  -1.0000
    24 S            6.1490    14.8830    53.4570 S.3          1 P1C1311   0.0000
    25 H1           0.7835     9.4419    52.4184 H            1 P1C1311   0.0000
    26 H2           0.3987    12.0419    51.2157 H            1 P1C1311   0.0000
    27 H3           1.8912    11.4376    51.4874 H            1 P1C1311   0.0000
    28 H4           0.8119    11.2135    53.8722 H            1 P1C1311   0.0000
    29 H5           0.0907    12.5756    53.3324 H            1 P1C1311   0.0000
    30 H6           2.8078    12.7803    53.0225 H            1 P1C1311   0.0000
    31 H7           2.4591    12.3878    54.5688 H            1 P1C1311   0.0000
    32 H8           3.3002    15.9188    54.0533 H            1 P1C1311   0.0000
    33 H9           3.6373    13.2887    55.4338 H            1 P1C1311   0.0000
    34 H10         -1.2089    10.5397    52.8270 H            1 P1C1311   0.0000
    35 H11         -1.4798    10.6509    51.2205 H            1 P1C1311   0.0000
    36 H12          5.7333    13.0738    54.8696 H            1 P1C1311   0.0000
    37 H13          8.5268    17.8117    54.6001 H            1 P1C1311   0.0000
    38 H14          7.4884    18.3179    55.7543 H            1 P1C1311   0.0000
    39 H15          8.8438    17.5091    56.1732 H            1 P1C1311   0.0000
    40 H16          8.3642    15.2254    53.9494 H            1 P1C1311   0.0000
    41 H17          7.6769    16.5938    53.3823 H            1 P1C1311   0.0000
    42 H18         -1.4619     9.1881    51.9462 H            1 P1C1311   0.0000
@<TRIPOS>BOND
     1    1    2       1
     2    1   14      ar
     3    1   15      ar
     4    2    3       1
     5    2   10       1
     6    3    4       1
     7    4    5       1
     8    5    6       1
     9    6    7      am
    10    6   11       2
    11    7    8       1
    12    8    9       1
    13    8   12       1
    14    9   13       2
    15    9   16      am
    16   12   16       1
    17   12   24       1
    18   16   17       1
    19   17   18       1
    20   17   19       2
    21   18   22      ar
    22   18   23      ar
    23   19   20       1
    24   19   21       1
    25   21   24       1
    26    2   25       1
    27    3   26       1
    28    3   27       1
    29    4   28       1
    30    4   29       1
    31    5   30       1
    32    5   31       1
    33    7   32       1
    34    8   33       1
    35   10   34       1
    36   10   35       1
    37   12   36       1
    38   10   42       1
    39   20   37       1
    40   20   38       1
    41   20   39       1
    42   21   40       1
    43   21   41       1
@<TRIPOS>SUBSTRUCTURE
     1 P1C1311     1 GROUP             4 A     P1C     0 **** P1C A1311
