@<TRIPOS>MOLECULE
3o9p_MHI_1_ligand
   52    51     1     0     0
SMALL
NO_CHARGES


@<TRIPOS>ATOM
     1 C1          13.9010    55.4970    39.6030 C.3          1 MHI516   0.0000
     2 N1          11.6660    54.7650    39.0260 N.4          1 MHI516   1.0000
     3 O1          11.2740    57.3170    39.7000 O.2          1 MHI516   0.0000
     4 C2          12.4230    55.3430    40.1100 C.3          1 MHI516   0.0000
     5 N2          12.0990    57.1490    41.7450 N.am         1 MHI516   0.0000
     6 O2          11.7910    57.3670    44.4160 O.co2        1 MHI516   0.0000
     7 C3          11.8690    56.6880    40.5110 C.2          1 MHI516   0.0000
     8 N3          13.3980    61.9190    39.6640 N.am         1 MHI516   0.0000
     9 O3          10.7170    59.2320    44.2480 O.co2        1 MHI516  -1.0000
    10 C4          11.5870    58.4290    42.2150 C.3          1 MHI516   0.0000
    11 N4          15.2220    65.6490    33.6330 N.4          1 MHI516   1.0000
    12 O4          15.0560    60.8900    40.7570 O.2          1 MHI516   0.0000
    13 C5          11.3130    58.3530    43.6850 C.2          1 MHI516   0.0000
    14 O5          14.4940    65.3490    40.2320 O.co2        1 MHI516   0.0000
    15 C6          12.5630    59.5780    41.9900 C.3          1 MHI516   0.0000
    16 O6          12.7470    64.2830    40.8560 O.co2        1 MHI516  -1.0000
    17 C7          12.9740    59.6920    40.5230 C.3          1 MHI516   0.0000
    18 O7          15.3110    67.4810    36.6150 O.co2        1 MHI516   0.0000
    19 C8          13.8980    60.8910    40.3340 C.2          1 MHI516   0.0000
    20 O8          14.3280    67.7710    34.6270 O.co2        1 MHI516  -1.0000
    21 C9          14.1550    63.0820    39.2840 C.3          1 MHI516   0.0000
    22 C10         13.7440    64.2700    40.1510 C.2          1 MHI516   0.0000
    23 C11         13.8570    63.3120    37.8160 C.3          1 MHI516   0.0000
    24 C12         14.4860    64.5820    37.2600 C.3          1 MHI516   0.0000
    25 C13         14.4360    64.6570    35.7540 C.3          1 MHI516   0.0000
    26 C15         14.9630    67.0550    35.4210 C.2          1 MHI516   0.0000
    27 C14         15.3580    65.6810    35.0720 C.3          1 MHI516   0.0000
    28 H1          14.4622    55.8963    40.3280 H            1 MHI516   0.0000
    29 H2          14.2643    54.5984    39.3569 H            1 MHI516   0.0000
    30 H3          13.9178    56.0944    38.8012 H            1 MHI516   0.0000
    31 H4          10.7138    54.6495    39.3088 H            1 MHI516   0.0000
    32 H5          11.7066    55.3704    38.2311 H            1 MHI516   0.0000
    33 H6          12.4030    54.7261    40.8968 H            1 MHI516   0.0000
    34 H7          12.6450    56.5920    42.3709 H            1 MHI516   0.0000
    35 H8          12.4325    61.8843    39.4059 H            1 MHI516   0.0000
    36 H9          10.7326    58.6314    41.7364 H            1 MHI516   0.0000
    37 H10         14.5078    66.2898    33.3513 H            1 MHI516   0.0000
    38 H11         16.0898    65.9102    33.2103 H            1 MHI516   0.0000
    39 H12         13.3805    59.4219    42.5443 H            1 MHI516   0.0000
    40 H13         12.1275    60.4329    42.2718 H            1 MHI516   0.0000
    41 H14         12.1573    59.8105    39.9582 H            1 MHI516   0.0000
    42 H15         13.4521    58.8582    40.2469 H            1 MHI516   0.0000
    43 H16         15.1311    62.9009    39.4039 H            1 MHI516   0.0000
    44 H17         12.8656    63.3729    37.7001 H            1 MHI516   0.0000
    45 H18         14.2061    62.5322    37.2963 H            1 MHI516   0.0000
    46 H19         15.4428    64.6160    37.5487 H            1 MHI516   0.0000
    47 H20         13.9967    65.3697    37.6343 H            1 MHI516   0.0000
    48 H21         13.4960    64.8785    35.4946 H            1 MHI516   0.0000
    49 H22         14.6754    63.7532    35.3994 H            1 MHI516   0.0000
    50 H23         16.3094    65.5177    35.3332 H            1 MHI516   0.0000
    51 H24         12.0530    53.8745    38.7868 H            1 MHI516   0.0000
    52 H25         14.9743    64.7249    33.3421 H            1 MHI516   0.0000
@<TRIPOS>BOND
     1    1    4       1
     2    2    4       1
     3    3    7       2
     4    4    7       1
     5    5    7      am
     6    5   10       1
     7    6   13      ar
     8    8   19      am
     9    8   21       1
    10    9   13      ar
    11   10   13       1
    12   10   15       1
    13   11   27       1
    14   12   19       2
    15   14   22      ar
    16   15   17       1
    17   16   22      ar
    18   17   19       1
    19   18   26      ar
    20   20   26      ar
    21   21   22       1
    22   21   23       1
    23   23   24       1
    24   24   25       1
    25   25   27       1
    26   26   27       1
    27    1   28       1
    28    1   29       1
    29    1   30       1
    30    2   31       1
    31    2   32       1
    32    4   33       1
    33    5   34       1
    34    2   51       1
    35    8   35       1
    36   10   36       1
    37   11   37       1
    38   11   38       1
    39   11   52       1
    40   15   39       1
    41   15   40       1
    42   17   41       1
    43   17   42       1
    44   27   50       1
    45   21   43       1
    46   23   44       1
    47   23   45       1
    48   24   46       1
    49   24   47       1
    50   25   48       1
    51   25   49       1
@<TRIPOS>SUBSTRUCTURE
     1 MHI516      1 GROUP             4 A     MHI     0 **** MHI A 516
