@<TRIPOS>MOLECULE
2y9q_ANP_1_ligand
   44    46     1     0     0
SMALL
NO_CHARGES


@<TRIPOS>ATOM
     1 PG          50.5400    26.8750     7.6630 P.3          1 ANP1359   0.0000
     2 O1G         51.7610    25.9330     7.2740 O.co2        1 ANP1359   0.0000
     3 O2G         50.8200    28.3150     7.0830 O.co2        1 ANP1359  -1.0000
     4 O3G         49.2180    26.3610     7.1080 O.co2        1 ANP1359  -1.0000
     5 PB          49.7850    27.9390    10.3450 P.3          1 ANP1359   0.0000
     6 O1B         50.1690    27.4530    11.7850 O.co2        1 ANP1359   0.0000
     7 O2B         48.2790    28.0560     9.9880 O.co2        1 ANP1359  -1.0000
     8 N3B         50.7000    26.8610     9.3250 N.3          1 ANP1359   0.0000
     9 PA          51.7940    30.1050     9.8660 P.3          1 ANP1359   0.0000
    10 O1A         52.6890    30.1230    11.0670 O.co2        1 ANP1359   0.0000
    11 O2A         52.4260    29.4650     8.6290 O.co2        1 ANP1359  -1.0000
    12 O3A         50.4020    29.4230    10.2230 O.3          1 ANP1359   0.0000
    13 O5'         51.3550    31.5850     9.5290 O.3          1 ANP1359   0.0000
    14 C5'         50.4340    31.9000     8.4730 C.3          1 ANP1359   0.0000
    15 C4'         50.7110    33.1450     7.7460 C.3          1 ANP1359   0.0000
    16 O4'         50.7210    34.2230     8.6550 O.3          1 ANP1359   0.0000
    17 C3'         52.0710    33.1600     7.1460 C.3          1 ANP1359   0.0000
    18 O3'         52.1220    32.5190     5.8900 O.3          1 ANP1359   0.0000
    19 C2'         52.3980    34.5630     7.1030 C.3          1 ANP1359   0.0000
    20 O2'         51.8200    35.2400     6.0110 O.3          1 ANP1359   0.0000
    21 C1'         51.7730    35.1070     8.3120 C.3          1 ANP1359   0.0000
    22 N9          52.6570    35.2310     9.4940 N.pl3        1 ANP1359   0.0000
    23 C8          52.9280    34.2820    10.4140 C.2          1 ANP1359   0.0000
    24 N7          53.7510    34.7850    11.3450 N.2          1 ANP1359   0.0000
    25 C5          53.9930    36.0830    11.0220 C.ar         1 ANP1359   0.0000
    26 C6          54.7480    37.1070    11.5910 C.ar         1 ANP1359   0.0000
    27 N6          55.4920    36.8670    12.7650 N.pl3        1 ANP1359   0.0000
    28 N1          54.7640    38.3180    11.0150 N.ar         1 ANP1359   0.0000
    29 C2          54.0730    38.5450     9.9000 C.ar         1 ANP1359   0.0000
    30 N3          53.3360    37.5920     9.2980 N.ar         1 ANP1359   0.0000
    31 C4          53.2950    36.3730     9.8510 C.ar         1 ANP1359   0.0000
    32 H3B         51.6643    27.0447     9.5158 H            1 ANP1359   0.0000
    33 H5'1        49.5201    31.9728     8.8723 H            1 ANP1359   0.0000
    34 H5'2        50.4510    31.1478     7.8143 H            1 ANP1359   0.0000
    35 H4'         50.0193    33.2944     7.0394 H            1 ANP1359   0.0000
    36 H3'         52.7037    32.7001     7.7690 H            1 ANP1359   0.0000
    37 H6          53.0555    32.5581     5.5335 H            1 ANP1359   0.0000
    38 H2'         53.3886    34.6986     7.1223 H            1 ANP1359   0.0000
    39 H8          52.1415    34.8308     5.1571 H            1 ANP1359   0.0000
    40 H1'         51.3862    36.0047     8.1010 H            1 ANP1359   0.0000
    41 H10         52.5704    33.3482    10.4031 H            1 ANP1359   0.0000
    42 H11         56.0335    37.6021    13.1728 H            1 ANP1359   0.0000
    43 H12         55.4779    35.9617    13.1895 H            1 ANP1359   0.0000
    44 H13         54.1023    39.4583     9.4938 H            1 ANP1359   0.0000
@<TRIPOS>BOND
     1    1    2      ar
     2    1    3      ar
     3    1    4      ar
     4    1    8       1
     5    5    6      ar
     6    5    7      ar
     7    5    8       1
     8    5   12       1
     9    9   10      ar
    10    9   11      ar
    11    9   12       1
    12    9   13       1
    13   13   14       1
    14   14   15       1
    15   15   16       1
    16   15   17       1
    17   16   21       1
    18   17   18       1
    19   17   19       1
    20   19   20       1
    21   19   21       1
    22   21   22       1
    23   22   23       1
    24   22   31       1
    25   23   24       2
    26   24   25       1
    27   25   26      ar
    28   25   31      ar
    29   26   27       1
    30   26   28      ar
    31   28   29      ar
    32   29   30      ar
    33   30   31      ar
    34   29   44       1
    35   27   43       1
    36   27   42       1
    37    8   32       1
    38   23   41       1
    39   14   33       1
    40   14   34       1
    41   15   35       1
    42   17   36       1
    43   18   37       1
    44   19   38       1
    45   20   39       1
    46   21   40       1
@<TRIPOS>SUBSTRUCTURE
     1 ANP1359     1 GROUP             4 A     ANP     0 **** ANP A1359
