@<TRIPOS>MOLECULE
3fu9_KIB_2_ligand
   22    22     1     0     0
SMALL
NO_CHARGES


@<TRIPOS>ATOM
     1 O1          -0.9730    27.2230    21.3280 O.3          1 KIB2001   0.0000
     2 C1          -2.2920    27.2250    21.2310 C.ar         1 KIB2001   0.0000
     3 C6          -3.0150    27.2380    19.9020 C.ar         1 KIB2001   0.0000
     4 O3          -2.2130    27.2210    18.8020 O.3          1 KIB2001   0.0000
     5 C7          -0.7950    26.9930    18.9190 C.3          1 KIB2001   0.0000
     6 C5          -4.4250    27.2630    19.8000 C.ar         1 KIB2001   0.0000
     7 C2          -3.0870    27.2610    22.4790 C.ar         1 KIB2001   0.0000
     8 O4          -2.3870    27.2540    23.7200 O.3          1 KIB2001   0.0000
     9 C8          -3.1490    27.3270    24.9450 C.3          1 KIB2001   0.0000
    10 C3          -4.4830    27.2830    22.3230 C.ar         1 KIB2001   0.0000
    11 C4          -5.1510    27.2780    21.0540 C.ar         1 KIB2001   0.0000
    12 O2          -6.4470    27.2680    21.0800 O.3          1 KIB2001   0.0000
    13 H1          -0.5379    27.2142    22.2283 H            1 KIB2001   0.0000
    14 H2          -0.3776    27.0164    18.0106 H            1 KIB2001   0.0000
    15 H3          -0.3889    27.7057    19.4909 H            1 KIB2001   0.0000
    16 H4          -0.6345    26.0987    19.3367 H            1 KIB2001   0.0000
    17 H5          -4.8928    27.2699    18.9162 H            1 KIB2001   0.0000
    18 H6          -2.5256    27.3126    25.7267 H            1 KIB2001   0.0000
    19 H7          -3.6797    28.1745    24.9575 H            1 KIB2001   0.0000
    20 H8          -3.7693    26.5445    24.9988 H            1 KIB2001   0.0000
    21 H9          -5.0464    27.3034    23.1489 H            1 KIB2001   0.0000
    22 H10         -6.9296    27.2787    21.9558 H            1 KIB2001   0.0000
@<TRIPOS>BOND
     1    1    2       1
     2    2    3      ar
     3    2    7      ar
     4    3    4       1
     5    3    6      ar
     6    4    5       1
     7    6   11      ar
     8    7    8       1
     9    7   10      ar
    10    8    9       1
    11   10   11      ar
    12   11   12       1
    13    1   13       1
    14    5   14       1
    15    5   15       1
    16    5   16       1
    17    6   17       1
    18    9   18       1
    19    9   19       1
    20    9   20       1
    21   10   21       1
    22   12   22       1
@<TRIPOS>SUBSTRUCTURE
     1 KIB2001     1 GROUP             4 B     KIB     0 **** KIB B2001
