@<TRIPOS>MOLECULE
1zyk_BE2_6_ligand
   16    16     1     0     0
SMALL
NO_CHARGES


@<TRIPOS>ATOM
     1 C           -0.2390    -3.0610   121.6000 C.2          1 BE2804   0.0000
     2 O1          -0.9210    -2.2360   122.2350 O.co2        1 BE2804   0.0000
     3 O2           0.5010    -2.6760   120.5850 O.co2        1 BE2804  -1.0000
     4 C1          -0.2060    -4.5080   121.9300 C.ar         1 BE2804   0.0000
     5 C2          -0.9770    -5.0370   123.0270 C.ar         1 BE2804   0.0000
     6 C3          -0.9380    -6.4380   123.3390 C.ar         1 BE2804   0.0000
     7 N2          -1.7680    -4.2690   123.8170 N.pl3        1 BE2804   0.0000
     8 C4          -0.1510    -7.3270   122.5850 C.ar         1 BE2804   0.0000
     9 C5           0.6220    -6.8710   121.5020 C.ar         1 BE2804   0.0000
    10 C6           0.5960    -5.4130   121.1610 C.ar         1 BE2804   0.0000
    11 H1          -1.4788    -6.7871   124.1043 H            1 BE2804   0.0000
    12 H2          -2.2828    -4.6864   124.5658 H            1 BE2804   0.0000
    13 H3          -1.8364    -3.2853   123.6506 H            1 BE2804   0.0000
    14 H4          -0.1409    -8.2983   122.8226 H            1 BE2804   0.0000
    15 H5           1.1787    -7.5086   120.9695 H            1 BE2804   0.0000
    16 H6           1.1396    -5.0701   120.3949 H            1 BE2804   0.0000
@<TRIPOS>BOND
     1    1    2      ar
     2    1    3      ar
     3    1    4       1
     4    4    5      ar
     5    4   10      ar
     6    5    6      ar
     7    5    7       1
     8    6    8      ar
     9    8    9      ar
    10    9   10      ar
    11   10   16       1
    12    6   11       1
    13    7   12       1
    14    7   13       1
    15    8   14       1
    16    9   15       1
@<TRIPOS>SUBSTRUCTURE
     1 BE2804      1 GROUP             4 C     BE2     0 **** BE2 C 804
