@<TRIPOS>MOLECULE
3rgz_BLD_1_ligand
   82    85     1     0     0
SMALL
NO_CHARGES


@<TRIPOS>ATOM
     1 C01         21.6440    -9.0840    32.7630 C.3          1 BLD800   0.0000
     2 C02         23.0200    -9.4440    33.3260 C.3          1 BLD800   0.0000
     3 O02         23.0360    -8.9980    34.6930 O.3          1 BLD800   0.0000
     4 C03         23.3430   -10.9350    33.2700 C.3          1 BLD800   0.0000
     5 O03         22.5170   -11.6570    34.1920 O.3          1 BLD800   0.0000
     6 C04         23.0840   -11.4760    31.8770 C.3          1 BLD800   0.0000
     7 C05         21.6370   -11.2360    31.4280 C.3          1 BLD800   0.0000
     8 C06         21.5630   -11.7790    30.0380 C.2          1 BLD800   0.0000
     9 O06         22.5260   -11.6450    29.3040 O.2          1 BLD800   0.0000
    10 C07         19.1070   -11.6940    30.2240 C.3          1 BLD800   0.0000
    11 O07         20.2600   -11.8620    29.4180 O.3          1 BLD800   0.0000
    12 C08         18.8600   -10.2040    30.3020 C.3          1 BLD800   0.0000
    13 C09         19.6530    -9.5560    31.4320 C.3          1 BLD800   0.0000
    14 C10         21.1880    -9.7640    31.4720 C.3          1 BLD800   0.0000
    15 C11         19.3190    -8.0630    31.4150 C.3          1 BLD800   0.0000
    16 C12         17.8360    -7.7450    31.6290 C.3          1 BLD800   0.0000
    17 C13         16.9740    -8.4730    30.6020 C.3          1 BLD800   0.0000
    18 C14         17.3920    -9.9400    30.5990 C.3          1 BLD800   0.0000
    19 C15         16.3570   -10.6600    29.7440 C.3          1 BLD800   0.0000
    20 C16         15.0810    -9.8810    30.0680 C.3          1 BLD800   0.0000
    21 C17         15.4960    -8.6800    30.9300 C.3          1 BLD800   0.0000
    22 C18         17.1440    -7.8520    29.2170 C.3          1 BLD800   0.0000
    23 C19         21.8250    -9.0020    30.3140 C.3          1 BLD800   0.0000
    24 C20         14.4870    -7.5380    30.7800 C.3          1 BLD800   0.0000
    25 C21         14.8020    -6.2770    31.5760 C.3          1 BLD800   0.0000
    26 C22         13.1450    -8.0750    31.2640 C.3          1 BLD800   0.0000
    27 O22         13.1820    -8.3620    32.6690 O.3          1 BLD800   0.0000
    28 C23         12.0000    -7.1260    30.9660 C.3          1 BLD800   0.0000
    29 O23         10.8250    -7.7500    31.4920 O.3          1 BLD800   0.0000
    30 C24         11.8980    -6.9370    29.4540 C.3          1 BLD800   0.0000
    31 C25         10.9470    -5.8160    29.0810 C.3          1 BLD800   0.0000
    32 C26         10.9050    -5.6500    27.5590 C.3          1 BLD800   0.0000
    33 C27         11.3510    -4.5350    29.8060 C.3          1 BLD800   0.0000
    34 C28         11.5130    -8.2270    28.7340 C.3          1 BLD800   0.0000
    35 H1          21.6416    -8.0982    32.5951 H            1 BLD800   0.0000
    36 H2          20.9692    -9.3037    33.4675 H            1 BLD800   0.0000
    37 H3          23.7187    -8.9432    32.8151 H            1 BLD800   0.0000
    38 H4          23.9219    -9.2138    35.1037 H            1 BLD800   0.0000
    39 H5          24.3045   -11.0750    33.5065 H            1 BLD800   0.0000
    40 H6          21.6418   -11.1846    34.2960 H            1 BLD800   0.0000
    41 H7          23.2642   -12.4596    31.8739 H            1 BLD800   0.0000
    42 H8          23.7011   -11.0220    31.2343 H            1 BLD800   0.0000
    43 H9          21.0286   -11.7726    32.0127 H            1 BLD800   0.0000
    44 H10         19.2656   -12.0674    31.1380 H            1 BLD800   0.0000
    45 H11         18.3229   -12.1540    29.8075 H            1 BLD800   0.0000
    46 H12         19.1075    -9.7776    29.4320 H            1 BLD800   0.0000
    47 H13         19.2893    -9.9236    32.2879 H            1 BLD800   0.0000
    48 H14         19.5941    -7.6908    30.5285 H            1 BLD800   0.0000
    49 H15         19.8426    -7.6169    32.1408 H            1 BLD800   0.0000
    50 H16         17.6950    -6.7594    31.5361 H            1 BLD800   0.0000
    51 H17         17.5674    -8.0351    32.5475 H            1 BLD800   0.0000
    52 H18         17.2432   -10.2647    31.5330 H            1 BLD800   0.0000
    53 H19         16.2729   -11.6210    30.0074 H            1 BLD800   0.0000
    54 H20         16.5829   -10.5993    28.7717 H            1 BLD800   0.0000
    55 H21         14.4426   -10.4620    30.5729 H            1 BLD800   0.0000
    56 H22         14.6479    -9.5648    29.2240 H            1 BLD800   0.0000
    57 H23         15.4517    -8.9803    31.8828 H            1 BLD800   0.0000
    58 H24         16.5720    -8.3423    28.5594 H            1 BLD800   0.0000
    59 H25         16.8691    -6.8910    29.2466 H            1 BLD800   0.0000
    60 H26         18.1022    -7.9162    28.9383 H            1 BLD800   0.0000
    61 H27         21.5487    -9.4193    29.4483 H            1 BLD800   0.0000
    62 H28         21.5231    -8.0489    30.3360 H            1 BLD800   0.0000
    63 H29         22.8207    -9.0383    30.3987 H            1 BLD800   0.0000
    64 H30         14.4100    -7.2991    29.8120 H            1 BLD800   0.0000
    65 H31         14.0902    -5.5937    31.4135 H            1 BLD800   0.0000
    66 H32         14.8358    -6.4978    32.5507 H            1 BLD800   0.0000
    67 H33         15.6867    -5.9121    31.2860 H            1 BLD800   0.0000
    68 H34         12.9659    -8.9321    30.7810 H            1 BLD800   0.0000
    69 H35         12.2920    -8.7120    32.9613 H            1 BLD800   0.0000
    70 H36         12.1546    -6.2459    31.4149 H            1 BLD800   0.0000
    71 H37         10.6881    -8.6337    31.0444 H            1 BLD800   0.0000
    72 H38         12.8061    -6.6755    29.1268 H            1 BLD800   0.0000
    73 H39         10.0309    -6.0712    29.3902 H            1 BLD800   0.0000
    74 H40         10.2762    -4.9095    27.3217 H            1 BLD800   0.0000
    75 H41         11.8207    -5.4305    27.2222 H            1 BLD800   0.0000
    76 H42         10.5907    -6.5015    27.1394 H            1 BLD800   0.0000
    77 H43         10.7217    -3.7987    29.5574 H            1 BLD800   0.0000
    78 H44         11.3144    -4.6854    30.7939 H            1 BLD800   0.0000
    79 H45         12.2816    -4.2817    29.5416 H            1 BLD800   0.0000
    80 H46         11.4583    -8.0561    27.7502 H            1 BLD800   0.0000
    81 H47         12.2039    -8.9275    28.9127 H            1 BLD800   0.0000
    82 H48         10.6246    -8.5424    29.0674 H            1 BLD800   0.0000
@<TRIPOS>BOND
     1    1    2       1
     2    1   14       1
     3    2    3       1
     4    2    4       1
     5    4    5       1
     6    4    6       1
     7    6    7       1
     8    7    8       1
     9    7   14       1
    10    8    9       2
    11    8   11       1
    12   10   11       1
    13   10   12       1
    14   12   13       1
    15   12   18       1
    16   13   14       1
    17   13   15       1
    18   14   23       1
    19   15   16       1
    20   16   17       1
    21   17   18       1
    22   17   21       1
    23   17   22       1
    24   18   19       1
    25   19   20       1
    26   20   21       1
    27   21   24       1
    28   24   25       1
    29   24   26       1
    30   26   27       1
    31   26   28       1
    32   28   29       1
    33   28   30       1
    34   30   31       1
    35   30   34       1
    36   31   32       1
    37   31   33       1
    38    1   35       1
    39    1   36       1
    40    2   37       1
    41    3   38       1
    42    4   39       1
    43    5   40       1
    44    6   41       1
    45    6   42       1
    46    7   43       1
    47   10   44       1
    48   10   45       1
    49   12   46       1
    50   13   47       1
    51   15   48       1
    52   15   49       1
    53   16   50       1
    54   16   51       1
    55   18   52       1
    56   19   53       1
    57   19   54       1
    58   20   55       1
    59   20   56       1
    60   21   57       1
    61   22   58       1
    62   22   59       1
    63   22   60       1
    64   23   61       1
    65   23   62       1
    66   23   63       1
    67   24   64       1
    68   25   65       1
    69   25   66       1
    70   25   67       1
    71   26   68       1
    72   27   69       1
    73   28   70       1
    74   29   71       1
    75   30   72       1
    76   31   73       1
    77   32   74       1
    78   32   75       1
    79   32   76       1
    80   33   77       1
    81   33   78       1
    82   33   79       1
    83   34   80       1
    84   34   81       1
    85   34   82       1
@<TRIPOS>SUBSTRUCTURE
     1 BLD800      1 GROUP             4 A     BLD     0 **** BLD A 800
