@<TRIPOS>MOLECULE
1r6u_TYM_1_ligand
   61    65     1     0     0
SMALL
NO_CHARGES


@<TRIPOS>ATOM
     1 P            5.1570    53.6180    43.0400 P.3          1 TYM501   0.0000
     2 O1P          6.5180    53.8900    42.5190 O.co2        1 TYM501   0.0000
     3 O2P          4.4820    52.3470    42.6420 O.co2        1 TYM501  -1.0000
     4 O5'          4.2120    54.8230    42.5800 O.3          1 TYM501   0.0000
     5 C5'          4.5720    56.1870    42.8370 C.3          1 TYM501   0.0000
     6 C4'          3.3400    57.0330    43.1010 C.3          1 TYM501   0.0000
     7 O4'          2.4920    57.0360    41.9180 O.3          1 TYM501   0.0000
     8 C1'          1.1710    56.6460    42.2520 C.3          1 TYM501   0.0000
     9 N9           0.6310    55.8460    41.1360 N.pl3        1 TYM501   0.0000
    10 C4          -0.4760    56.1560    40.3740 C.ar         1 TYM501   0.0000
    11 N3          -1.2960    57.2500    40.4920 N.ar         1 TYM501   0.0000
    12 C2          -2.2890    57.2340    39.5730 C.ar         1 TYM501   0.0000
    13 N1          -2.5230    56.3010    38.6170 N.ar         1 TYM501   0.0000
    14 C6          -1.6800    55.2140    38.5230 C.ar         1 TYM501   0.0000
    15 N6          -1.9240    54.3080    37.5770 N.pl3        1 TYM501   0.0000
    16 C5          -0.5920    55.1170    39.4430 C.ar         1 TYM501   0.0000
    17 N7           0.4140    54.1780    39.6190 N.2          1 TYM501   0.0000
    18 C8           1.1110    54.6500    40.6270 C.2          1 TYM501   0.0000
    19 C2'          1.2610    55.9020    43.5890 C.3          1 TYM501   0.0000
    20 O2'          0.0530    56.0110    44.3100 O.3          1 TYM501   0.0000
    21 C3'          2.4650    56.5530    44.2680 C.3          1 TYM501   0.0000
    22 O3'          2.0550    57.6690    45.0660 O.3          1 TYM501   0.0000
    23 NH3          6.6780    51.7500    47.6060 N.4          1 TYM501   1.0000
    24 CA           6.0630    52.9030    46.9490 C.3          1 TYM501   0.0000
    25 CB           6.9650    54.1350    47.1020 C.3          1 TYM501   0.0000
    26 CG           6.6350    55.0120    48.2730 C.2          1 TYM501   0.0000
    27 CD2          5.4790    55.8690    48.4370 C.ar         1 TYM501   0.0000
    28 CE2          5.6150    56.5050    49.7130 C.ar         1 TYM501   0.0000
    29 CE3          4.3260    56.1790    47.6360 C.ar         1 TYM501   0.0000
    30 CD1          7.3880    55.1560    49.4080 C.2          1 TYM501   0.0000
    31 NE1          6.7900    56.0440    50.2750 N.pl3        1 TYM501   0.0000
    32 CZ2          4.6480    57.4330    50.2110 C.ar         1 TYM501   0.0000
    33 CZ3          3.3680    57.0980    48.1310 C.ar         1 TYM501   0.0000
    34 CH2          3.5390    57.7140    49.4100 C.ar         1 TYM501   0.0000
    35 C            5.8330    52.6420    45.4520 C.2          1 TYM501   0.0000
    36 O            6.1660    51.5680    44.9460 O.2          1 TYM501   0.0000
    37 OPP          5.2150    53.6650    44.6480 O.3          1 TYM501   0.0000
    38 H5'1         5.0561    56.5530    42.0422 H            1 TYM501   0.0000
    39 H5'2         5.1707    56.2222    43.6372 H            1 TYM501   0.0000
    40 H4'          3.6316    57.9714    43.2864 H            1 TYM501   0.0000
    41 H1'          0.6084    57.4642    42.3702 H            1 TYM501   0.0000
    42 H5          -2.9275    58.0031    39.6023 H            1 TYM501   0.0000
    43 H6          -1.3297    53.5090    37.4847 H            1 TYM501   0.0000
    44 H7          -2.7014    54.4270    36.9593 H            1 TYM501   0.0000
    45 H8           1.9174    54.1869    40.9949 H            1 TYM501   0.0000
    46 H2'          1.4589    54.9368    43.4183 H            1 TYM501   0.0000
    47 H10         -0.3238    55.0985    44.4689 H            1 TYM501   0.0000
    48 H3'          2.9580    55.8848    44.8252 H            1 TYM501   0.0000
    49 H12          2.7542    58.3828    45.0251 H            1 TYM501   0.0000
    50 HH31         6.0849    50.9516    47.5021 H            1 TYM501   0.0000
    51 HH32         7.5663    51.5621    47.1869 H            1 TYM501   0.0000
    52 HA           5.1822    53.0911    47.3836 H            1 TYM501   0.0000
    53 HB1          6.8863    54.6839    46.2698 H            1 TYM501   0.0000
    54 HB2          7.9083    53.8195    47.2052 H            1 TYM501   0.0000
    55 HE3          4.2018    55.7513    46.7407 H            1 TYM501   0.0000
    56 HD1          8.2513    54.6826    49.5829 H            1 TYM501   0.0000
    57 HE1          7.1492    56.3123    51.1689 H            1 TYM501   0.0000
    58 HZ2          4.7621    57.8671    51.1046 H            1 TYM501   0.0000
    59 HZ3          2.5633    57.3183    47.5797 H            1 TYM501   0.0000
    60 HH2          2.8497    58.3599    49.7380 H            1 TYM501   0.0000
    61 HH33         6.8033    51.9480    48.5782 H            1 TYM501   0.0000
@<TRIPOS>BOND
     1    1    2      ar
     2    1    3      ar
     3    1    4       1
     4    1   37       1
     5    4    5       1
     6    5    6       1
     7    6    7       1
     8    6   21       1
     9    7    8       1
    10    8    9       1
    11    8   19       1
    12    9   10       1
    13    9   18       1
    14   10   11      ar
    15   10   16      ar
    16   11   12      ar
    17   12   13      ar
    18   13   14      ar
    19   14   15       1
    20   14   16      ar
    21   16   17       1
    22   17   18       2
    23   19   20       1
    24   19   21       1
    25   21   22       1
    26   23   24       1
    27   24   25       1
    28   24   35       1
    29   25   26       1
    30   26   27       1
    31   26   30       2
    32   27   28      ar
    33   27   29      ar
    34   28   31       1
    35   28   32      ar
    36   29   33      ar
    37   30   31       1
    38   32   34      ar
    39   33   34      ar
    40   35   36       2
    41   35   37       1
    42   34   60       1
    43    5   38       1
    44    5   39       1
    45    6   40       1
    46    8   41       1
    47   12   42       1
    48   15   43       1
    49   15   44       1
    50   18   45       1
    51   19   46       1
    52   20   47       1
    53   21   48       1
    54   22   49       1
    55   23   50       1
    56   23   51       1
    57   24   52       1
    58   25   53       1
    59   25   54       1
    60   29   55       1
    61   30   56       1
    62   31   57       1
    63   32   58       1
    64   33   59       1
    65   23   61       1
@<TRIPOS>SUBSTRUCTURE
     1 TYM501      1 GROUP             4 A     TYM     0 **** TYM A 501
