@<TRIPOS>MOLECULE
1ewy_FAD_1_ligand
   84    89     1     0     0
SMALL
NO_CHARGES


@<TRIPOS>ATOM
     1 PA          25.1790    35.1950    -9.9750 P.3          1 FAD304   0.0000
     2 O1A         24.1280    34.1620   -10.1470 O.co2        1 FAD304   0.0000
     3 O2A         25.3030    35.8170    -8.8200 O.co2        1 FAD304  -1.0000
     4 O5B         24.6480    36.2630   -10.9160 O.3          1 FAD304   0.0000
     5 C5B         24.5320    36.0970   -12.3520 C.3          1 FAD304   0.0000
     6 C4B         23.2090    36.8010   -12.7580 C.3          1 FAD304   0.0000
     7 O4B         23.5110    38.1390   -13.2900 O.3          1 FAD304   0.0000
     8 C3B         22.4420    36.1520   -13.8880 C.3          1 FAD304   0.0000
     9 O3B         21.9200    34.8790   -13.6550 O.3          1 FAD304   0.0000
    10 C2B         21.4880    37.2820   -14.2410 C.3          1 FAD304   0.0000
    11 O2B         20.4470    37.4420   -13.3170 O.3          1 FAD304   0.0000
    12 C1B         22.3930    38.4970   -14.2170 C.3          1 FAD304   0.0000
    13 N9A         23.0960    38.7860   -15.4610 N.pl3        1 FAD304   0.0000
    14 C8A         24.2820    38.2220   -15.8540 C.2          1 FAD304   0.0000
    15 N7A         24.9030    38.9200   -16.7870 N.2          1 FAD304   0.0000
    16 C5A         24.0850    39.9950   -17.0260 C.ar         1 FAD304   0.0000
    17 C6A         24.2630    41.1830   -17.8830 C.ar         1 FAD304   0.0000
    18 N6A         25.3390    41.4200   -18.6220 N.pl3        1 FAD304   0.0000
    19 N1A         23.1960    42.0590   -17.8690 N.ar         1 FAD304   0.0000
    20 C2A         22.0740    41.8460   -17.1210 C.ar         1 FAD304   0.0000
    21 N3A         21.8340    40.7860   -16.3090 N.ar         1 FAD304   0.0000
    22 C4A         22.8780    39.8830   -16.2940 C.ar         1 FAD304   0.0000
    23 N1          31.0480    28.9140   -14.7460 N.2          1 FAD304   0.0000
    24 C2          32.3630    28.9190   -14.6490 C.2          1 FAD304   0.0000
    25 O2          32.9580    29.9180   -14.5570 O.2          1 FAD304   0.0000
    26 N3          33.1300    27.7330   -14.6490 N.pl3        1 FAD304   0.0000
    27 C4          32.5410    26.5200   -14.9060 C.2          1 FAD304   0.0000
    28 O4          33.2070    25.5110   -14.9060 O.2          1 FAD304   0.0000
    29 C4X         31.1140    26.5300   -15.1770 C.2          1 FAD304   0.0000
    30 N5          30.4950    25.3700   -15.4370 N.2          1 FAD304   0.0000
    31 C5X         29.1390    25.4170   -15.5300 C.ar         1 FAD304   0.0000
    32 C6          28.4820    24.2160   -15.8010 C.ar         1 FAD304   0.0000
    33 C7          27.1310    24.1420   -15.7980 C.ar         1 FAD304   0.0000
    34 C7M         26.4510    22.8350   -16.0940 C.3          1 FAD304   0.0000
    35 C8          26.3530    25.3190   -15.6350 C.ar         1 FAD304   0.0000
    36 C8M         24.8690    25.3070   -15.7500 C.3          1 FAD304   0.0000
    37 C9          26.9880    26.5390   -15.5620 C.ar         1 FAD304   0.0000
    38 C9A         28.3670    26.5860   -15.4560 C.ar         1 FAD304   0.0000
    39 N10         29.0380    27.7860   -15.1690 N.pl3        1 FAD304   0.0000
    40 C10         30.3880    27.7800   -15.0720 C.2          1 FAD304   0.0000
    41 C1'         28.2250    28.9870   -14.7890 C.3          1 FAD304   0.0000
    42 C2'         28.1270    29.1500   -13.2580 C.3          1 FAD304   0.0000
    43 O2'         27.4220    28.0070   -12.7730 O.3          1 FAD304   0.0000
    44 C3'         27.3460    30.3890   -12.8820 C.3          1 FAD304   0.0000
    45 O3'         26.1750    30.4750   -13.7080 O.3          1 FAD304   0.0000
    46 C4'         28.2050    31.5880   -13.2080 C.3          1 FAD304   0.0000
    47 O4'         29.5300    31.4200   -12.6510 O.3          1 FAD304   0.0000
    48 C5'         27.5610    32.8340   -12.6320 C.3          1 FAD304   0.0000
    49 O5'         28.2660    33.1060   -11.2310 O.3          1 FAD304   0.0000
    50 P           27.5670    33.7220   -10.0580 P.3          1 FAD304   0.0000
    51 O1P         26.9010    32.8420    -9.2370 O.co2        1 FAD304   0.0000
    52 O2P         28.7700    34.4040    -9.3940 O.co2        1 FAD304  -1.0000
    53 O3P         26.5530    34.6720   -10.5330 O.3          1 FAD304   0.0000
    54 H5B1        24.4955    35.1259   -12.5878 H            1 FAD304   0.0000
    55 H5B2        25.3090    36.5235   -12.8151 H            1 FAD304   0.0000
    56 H4B         22.6162    36.8858   -11.9571 H            1 FAD304   0.0000
    57 H3B         23.0790    36.0648   -14.6539 H            1 FAD304   0.0000
    58 H5          21.4388    34.5614   -14.4720 H            1 FAD304   0.0000
    59 H2B         21.1166    37.1461   -15.1595 H            1 FAD304   0.0000
    60 H7          19.8584    38.1972   -13.6055 H            1 FAD304   0.0000
    61 H1B         21.9007    39.3032   -13.8889 H            1 FAD304   0.0000
    62 H8A         24.6401    37.3695   -15.4732 H            1 FAD304   0.0000
    63 H6A1        25.3900    42.2485   -19.1797 H            1 FAD304   0.0000
    64 H6A2        26.0991    40.7702   -18.6213 H            1 FAD304   0.0000
    65 H2A         21.3572    42.5410   -17.1773 H            1 FAD304   0.0000
    66 H13         34.1110    27.7773   -14.4601 H            1 FAD304   0.0000
    67 H14         29.0188    23.3963   -16.0008 H            1 FAD304   0.0000
    68 H7M1        25.4595    22.9577   -16.0503 H            1 FAD304   0.0000
    69 H7M2        26.7085    22.5250   -17.0092 H            1 FAD304   0.0000
    70 H7M3        26.7325    22.1525   -15.4194 H            1 FAD304   0.0000
    71 H8M1        24.5158    26.2308   -15.6025 H            1 FAD304   0.0000
    72 H8M2        24.6079    24.9920   -16.6625 H            1 FAD304   0.0000
    73 H8M3        24.4864    24.6901   -15.0623 H            1 FAD304   0.0000
    74 H21         26.4560    27.3854   -15.5854 H            1 FAD304   0.0000
    75 H1'1        27.3033    28.8859   -15.1636 H            1 FAD304   0.0000
    76 H1'2        28.6539    29.8038   -15.1749 H            1 FAD304   0.0000
    77 H2'         29.0422    29.1854   -12.8566 H            1 FAD304   0.0000
    78 H25         28.0738    27.2796   -12.5585 H            1 FAD304   0.0000
    79 H3'         27.1005    30.3772   -11.9127 H            1 FAD304   0.0000
    80 H27         25.4449    30.9366   -13.2042 H            1 FAD304   0.0000
    81 H4'         28.2749    31.6826   -14.2011 H            1 FAD304   0.0000
    82 H29         30.1170    30.9629   -13.3192 H            1 FAD304   0.0000
    83 H5'1        26.5805    32.6866   -12.5018 H            1 FAD304   0.0000
    84 H5'2        27.7027    33.6106   -13.2458 H            1 FAD304   0.0000
@<TRIPOS>BOND
     1    1    2      ar
     2    1    3      ar
     3    1    4       1
     4    1   53       1
     5    4    5       1
     6    5    6       1
     7    6    7       1
     8    6    8       1
     9    7   12       1
    10    8    9       1
    11    8   10       1
    12   10   11       1
    13   10   12       1
    14   12   13       1
    15   13   14       1
    16   13   22       1
    17   14   15       2
    18   15   16       1
    19   16   17      ar
    20   16   22      ar
    21   17   18       1
    22   17   19      ar
    23   19   20      ar
    24   20   21      ar
    25   21   22      ar
    26   23   24       1
    27   23   40       2
    28   24   25       2
    29   24   26       1
    30   26   27       1
    31   27   28       2
    32   27   29       1
    33   29   30       2
    34   29   40       1
    35   30   31       1
    36   31   32      ar
    37   31   38      ar
    38   32   33      ar
    39   33   34       1
    40   33   35      ar
    41   35   36       1
    42   35   37      ar
    43   37   38      ar
    44   38   39       1
    45   39   40       1
    46   39   41       1
    47   41   42       1
    48   42   43       1
    49   42   44       1
    50   44   45       1
    51   44   46       1
    52   46   47       1
    53   46   48       1
    54   48   49       1
    55   49   50       1
    56   50   51      ar
    57   50   52      ar
    58   50   53       1
    59   48   84       1
    60    5   54       1
    61    5   55       1
    62    6   56       1
    63    8   57       1
    64    9   58       1
    65   10   59       1
    66   11   60       1
    67   12   61       1
    68   14   62       1
    69   18   63       1
    70   18   64       1
    71   20   65       1
    72   26   66       1
    73   32   67       1
    74   34   68       1
    75   34   69       1
    76   34   70       1
    77   36   71       1
    78   36   72       1
    79   36   73       1
    80   37   74       1
    81   41   75       1
    82   41   76       1
    83   42   77       1
    84   43   78       1
    85   44   79       1
    86   45   80       1
    87   46   81       1
    88   47   82       1
    89   48   83       1
@<TRIPOS>SUBSTRUCTURE
     1 FAD304      1 GROUP             4 A     FAD     0 **** FAD A 304
