@<TRIPOS>MOLECULE
2fhi_IB2_1_ligand
   77    82     1     0     0
SMALL
NO_CHARGES


@<TRIPOS>ATOM
     1 PA           9.2630    12.9860    23.2270 P.3          1 IB2301   0.0000
     2 O1A         10.3760    13.1880    22.2000 O.co2        1 IB2301   0.0000
     3 O2A          8.0270    12.2090    22.7260 O.co2        1 IB2301  -1.0000
     4 C3A          8.6510    14.6920    23.6650 C.3          1 IB2301   0.0000
     5 PB           8.3210    15.9400    22.3510 P.3          1 IB2301   0.0000
     6 O1B          7.1770    16.7690    22.8870 O.co2        1 IB2301   0.0000
     7 O2B          8.0390    15.2000    21.0760 O.co2        1 IB2301  -1.0000
     8 O3B          9.5700    16.8140    22.1370 O.3          1 IB2301   0.0000
     9 PG          10.0590    17.9360    21.1670 P.3          1 IB2301   0.0000
    10 O1G          9.0760    18.4180    20.2660 O.co2        1 IB2301  -1.0000
    11 S2G         11.1980    17.4650    20.4250 S.2          1 IB2301   0.0000
    12 O5D          9.8820    12.2560    24.5490 O.3          1 IB2301   0.0000
    13 C5D         10.2490    10.8980    24.4610 C.3          1 IB2301   0.0000
    14 C4D         11.4460    10.7790    25.3590 C.3          1 IB2301   0.0000
    15 O4D         11.0850     9.8930    26.4360 O.3          1 IB2301   0.0000
    16 C3D         12.6630    10.1600    24.6430 C.3          1 IB2301   0.0000
    17 O3D         13.8700    10.8450    25.0080 O.3          1 IB2301   0.0000
    18 C2D         12.7170     8.6780    25.0630 C.3          1 IB2301   0.0000
    19 O2D         14.1030     8.1050    25.0510 O.3          1 IB2301   0.0000
    20 C1D         12.0100     8.7360    26.4460 C.3          1 IB2301   0.0000
    21 O5'         10.5130    19.0590    22.2120 O.3          1 IB2301   0.0000
    22 C5'          9.5220    19.9220    22.8260 C.3          1 IB2301   0.0000
    23 C4'          9.6410    19.7430    24.3500 C.3          1 IB2301   0.0000
    24 O4'          9.8510    21.0470    24.9630 O.3          1 IB2301   0.0000
    25 C3'          8.3380    19.1460    24.9440 C.3          1 IB2301   0.0000
    26 O3'          8.5690    18.1000    25.9120 O.3          1 IB2301   0.0000
    27 C2'          7.6100    20.3180    25.5440 C.3          1 IB2301   0.0000
    28 O2'          6.7680    19.9730    26.6780 O.3          1 IB2301   0.0000
    29 C1'          8.7420    21.2850    25.8800 C.3          1 IB2301   0.0000
    30 N9           8.2730    22.7160    25.7890 N.pl3        1 IB2301   0.0000
    31 C8           7.9010    23.3670    24.6560 C.2          1 IB2301   0.0000
    32 N7           7.5460    24.6360    24.9270 N.2          1 IB2301   0.0000
    33 C5           7.6810    24.8060    26.2350 C.ar         1 IB2301   0.0000
    34 C6           7.4740    25.8830    27.0910 C.ar         1 IB2301   0.0000
    35 N6           7.0520    27.0760    26.6320 N.pl3        1 IB2301   0.0000
    36 N1           7.7330    25.6800    28.4960 N.ar         1 IB2301   0.0000
    37 C2           8.1830    24.4620    29.0230 C.ar         1 IB2301   0.0000
    38 N3           8.3800    23.4400    28.1660 N.ar         1 IB2301   1.0000
    39 C4           8.1430    23.5630    26.7560 C.ar         1 IB2301   0.0000
    40 N9A         11.2940     7.4520    26.7250 N.pl3        1 IB2301   0.0000
    41 C8A         11.8710     6.2310    26.8420 C.2          1 IB2301   0.0000
    42 N7A         10.9340     5.3040    27.0830 N.2          1 IB2301   0.0000
    43 C5A          9.7530     5.9330    27.1200 C.ar         1 IB2301   0.0000
    44 C6A          8.4260     5.5100    27.3260 C.ar         1 IB2301   0.0000
    45 N6A          8.1190     4.2350    27.5400 N.pl3        1 IB2301   0.0000
    46 N1A          7.4020     6.4930    27.2970 N.ar         1 IB2301   0.0000
    47 C2A          7.6820     7.8620    27.0700 C.ar         1 IB2301   0.0000
    48 N3A          8.9860     8.2460    26.8670 N.ar         1 IB2301   1.0000
    49 C4A         10.0440     7.3020    26.8890 C.ar         1 IB2301   0.0000
    50 H3A1         9.3352    15.0930    24.2742 H            1 IB2301   0.0000
    51 H3A2         7.7928    14.5682    24.1631 H            1 IB2301   0.0000
    52 H5D1        10.4862    10.6553    23.5203 H            1 IB2301   0.0000
    53 H5D2         9.5066    10.3089    24.7802 H            1 IB2301   0.0000
    54 H4D         11.6875    11.6779    25.7246 H            1 IB2301   0.0000
    55 H3D         12.5327    10.2205    23.6534 H            1 IB2301   0.0000
    56 H7          14.0070    10.7754    25.9961 H            1 IB2301   0.0000
    57 H2D         12.1471     8.1476    24.4354 H            1 IB2301   0.0000
    58 H9          14.0696     7.1458    25.3316 H            1 IB2301   0.0000
    59 H1D         12.7001     8.8810    27.1551 H            1 IB2301   0.0000
    60 H5'1         8.6058    19.6619    22.5213 H            1 IB2301   0.0000
    61 H5'2         9.6975    20.8749    22.5786 H            1 IB2301   0.0000
    62 H4'         10.4132    19.1433    24.5599 H            1 IB2301   0.0000
    63 H3'          7.7864    18.7748    24.1971 H            1 IB2301   0.0000
    64 H15          7.6919    17.7615    26.2528 H            1 IB2301   0.0000
    65 H2'          7.0371    20.7324    24.8369 H            1 IB2301   0.0000
    66 H17          6.3185    20.7972    27.0224 H            1 IB2301   0.0000
    67 H1'          9.0520    21.1063    26.8138 H            1 IB2301   0.0000
    68 H19          7.8923    22.9580    23.7435 H            1 IB2301   0.0000
    69 H20          6.9106    27.8348    27.2678 H            1 IB2301   0.0000
    70 H21          6.8799    27.2035    25.6552 H            1 IB2301   0.0000
    71 H22          8.3525    24.3544    30.0026 H            1 IB2301   0.0000
    72 H8A         12.8509     6.0490    26.7605 H            1 IB2301   0.0000
    73 H6A1         7.1661     3.9673    27.6828 H            1 IB2301   0.0000
    74 H6A2         8.8408     3.5432    27.5582 H            1 IB2301   0.0000
    75 H2A          6.9445     8.5373    27.0576 H            1 IB2301   0.0000
    76 H27          8.7029    22.5647    28.5259 H            1 IB2301   0.0000
    77 H3A          9.1928     9.2101    26.7005 H            1 IB2301   0.0000
@<TRIPOS>BOND
     1    1    2      ar
     2    1    3      ar
     3    1    4       1
     4    1   12       1
     5    4    5       1
     6    5    6      ar
     7    5    7      ar
     8    5    8       1
     9    8    9       1
    10    9   10      ar
    11    9   11       2
    12    9   21       1
    13   12   13       1
    14   13   14       1
    15   14   15       1
    16   14   16       1
    17   15   20       1
    18   16   17       1
    19   16   18       1
    20   18   19       1
    21   18   20       1
    22   20   40       1
    23   21   22       1
    24   22   23       1
    25   23   24       1
    26   23   25       1
    27   24   29       1
    28   25   26       1
    29   25   27       1
    30   27   28       1
    31   27   29       1
    32   29   30       1
    33   30   31       1
    34   30   39       1
    35   31   32       2
    36   32   33       1
    37   33   34      ar
    38   33   39      ar
    39   34   35       1
    40   34   36      ar
    41   36   37      ar
    42   37   38      ar
    43   38   39      ar
    44   40   41       1
    45   40   49       1
    46   41   42       2
    47   42   43       1
    48   43   44      ar
    49   43   49      ar
    50   44   45       1
    51   44   46      ar
    52   46   47      ar
    53   47   48      ar
    54   48   49      ar
    55   47   75       1
    56    4   50       1
    57    4   51       1
    58   45   74       1
    59   45   73       1
    60   13   52       1
    61   13   53       1
    62   14   54       1
    63   16   55       1
    64   17   56       1
    65   18   57       1
    66   19   58       1
    67   20   59       1
    68   22   60       1
    69   22   61       1
    70   23   62       1
    71   25   63       1
    72   26   64       1
    73   27   65       1
    74   28   66       1
    75   29   67       1
    76   31   68       1
    77   35   69       1
    78   35   70       1
    79   37   71       1
    80   41   72       1
    81   38   76       1
    82   48   77       1
@<TRIPOS>SUBSTRUCTURE
     1 IB2301      1 GROUP             4 A     IB2     0 **** IB2 A 301
