@<TRIPOS>MOLECULE
3niz_ADP_1_ligand
   39    41     1     0     0
SMALL
NO_CHARGES


@<TRIPOS>ATOM
     1 PB          -0.9190    13.1090    86.7060 P.3          1 ADP314   0.0000
     2 O1B         -1.5120    13.1780    85.2410 O.co2        1 ADP314   0.0000
     3 O2B         -1.9710    13.3830    87.7380 O.co2        1 ADP314  -1.0000
     4 O3B         -0.3980    11.7250    87.1340 O.co2        1 ADP314  -1.0000
     5 PA           0.9180    15.0280    85.8200 P.3          1 ADP314   0.0000
     6 O1A          0.9670    14.5310    84.3110 O.co2        1 ADP314   0.0000
     7 O2A          2.3900    15.4780    86.0400 O.co2        1 ADP314  -1.0000
     8 O3A          0.3710    13.9920    86.8030 O.3          1 ADP314   0.0000
     9 O5'         -0.2830    16.0250    85.9800 O.3          1 ADP314   0.0000
    10 C5'          0.1700    17.3180    86.1150 C.3          1 ADP314   0.0000
    11 C4'         -0.5990    18.2890    85.2460 C.3          1 ADP314   0.0000
    12 O4'         -0.3660    19.5190    85.9900 O.3          1 ADP314   0.0000
    13 C3'          0.1430    18.4480    83.9170 C.3          1 ADP314   0.0000
    14 O3'         -0.4050    17.7210    82.7830 O.3          1 ADP314   0.0000
    15 C2'          0.3150    19.9900    83.8120 C.3          1 ADP314   0.0000
    16 O2'         -0.9690    20.5880    83.3260 O.3          1 ADP314   0.0000
    17 C1'          0.6140    20.3640    85.3030 C.3          1 ADP314   0.0000
    18 N9           2.0570    20.2280    85.6360 N.pl3        1 ADP314   0.0000
    19 C8           2.8030    19.0720    85.8410 C.2          1 ADP314   0.0000
    20 N7           4.0980    19.3130    86.0490 N.2          1 ADP314   0.0000
    21 C5           4.2590    20.6690    85.9910 C.ar         1 ADP314   0.0000
    22 C6           5.4030    21.5450    86.1230 C.ar         1 ADP314   0.0000
    23 N6           6.6930    21.1250    86.3390 N.pl3        1 ADP314   0.0000
    24 N1           5.1950    22.9250    85.9640 N.ar         1 ADP314   0.0000
    25 C2           3.9050    23.3380    85.7670 C.ar         1 ADP314   0.0000
    26 N3           2.7720    22.6000    85.6180 N.ar         1 ADP314   0.0000
    27 C4           2.9900    21.2770    85.7310 C.ar         1 ADP314   0.0000
    28 H5'1         1.1353    17.3493    85.8559 H            1 ADP314   0.0000
    29 H5'2         0.0723    17.5949    87.0709 H            1 ADP314   0.0000
    30 H4'         -1.5664    18.0579    85.1423 H            1 ADP314   0.0000
    31 H3'          1.0597    18.0772    84.0662 H            1 ADP314   0.0000
    32 H5           0.1545    17.8962    81.9729 H            1 ADP314   0.0000
    33 H2'          1.0795    20.2321    83.2146 H            1 ADP314   0.0000
    34 H7          -0.9611    20.6277    82.3268 H            1 ADP314   0.0000
    35 H1'          0.3520    21.3190    85.4420 H            1 ADP314   0.0000
    36 H9           2.4082    18.1533    85.8332 H            1 ADP314   0.0000
    37 H10          7.4304    21.7957    86.4190 H            1 ADP314   0.0000
    38 H11          6.8946    20.1486    86.4162 H            1 ADP314   0.0000
    39 H12          3.7764    24.3289    85.7266 H            1 ADP314   0.0000
@<TRIPOS>BOND
     1    1    2      ar
     2    1    3      ar
     3    1    4      ar
     4    1    8       1
     5    5    6      ar
     6    5    7      ar
     7    5    8       1
     8    5    9       1
     9    9   10       1
    10   10   11       1
    11   11   12       1
    12   11   13       1
    13   12   17       1
    14   13   14       1
    15   13   15       1
    16   15   16       1
    17   15   17       1
    18   17   18       1
    19   18   19       1
    20   18   27       1
    21   19   20       2
    22   20   21       1
    23   21   22      ar
    24   21   27      ar
    25   22   23       1
    26   22   24      ar
    27   24   25      ar
    28   25   26      ar
    29   26   27      ar
    30   25   39       1
    31   23   38       1
    32   23   37       1
    33   10   28       1
    34   10   29       1
    35   11   30       1
    36   13   31       1
    37   14   32       1
    38   15   33       1
    39   16   34       1
    40   17   35       1
    41   19   36       1
@<TRIPOS>SUBSTRUCTURE
     1 ADP314      1 GROUP             4 A     ADP     0 **** ADP A 314
