@<TRIPOS>MOLECULE
1ses_AHX_1_ligand
   49    51     1     0     0
SMALL
NO_CHARGES


@<TRIPOS>ATOM
     1 N10         52.2550    11.5230    62.9640 N.3          1 AHX422   0.0000
     2 CA          52.8650    12.7830    62.6410 C.3          1 AHX422   0.0000
     3 CB          54.3480    12.6590    62.7550 C.3          1 AHX422   0.0000
     4 OG          54.7040    11.5050    61.9790 O.3          1 AHX422   0.0000
     5 C9          52.4440    12.8620    61.2050 C.2          1 AHX422   0.0000
     6 O9          52.1960    11.8210    60.5780 O.2          1 AHX422   0.0000
     7 N8          52.2810    14.0540    60.6970 N.am         1 AHX422   0.0000
     8 PA          52.9740    14.6340    58.4080 P.3          1 AHX422   0.0000
     9 O1A         52.2210    15.2360    57.2920 O.co2        1 AHX422   0.0000
    10 O2A         53.9150    15.4820    59.1880 O.co2        1 AHX422  -1.0000
    11 O3A         51.8810    14.0720    59.3800 O.3          1 AHX422   0.0000
    12 O5'         53.8430    13.3840    57.8970 O.3          1 AHX422   0.0000
    13 C5'         55.0600    13.0060    58.5630 C.3          1 AHX422   0.0000
    14 C4'         56.1520    12.4640    57.6570 C.3          1 AHX422   0.0000
    15 O4'         55.7730    11.3280    56.8510 O.3          1 AHX422   0.0000
    16 C3'         56.6640    13.5570    56.7460 C.3          1 AHX422   0.0000
    17 O3'         57.6300    14.3880    57.4180 O.3          1 AHX422   0.0000
    18 C2'         57.2880    12.7520    55.6410 C.3          1 AHX422   0.0000
    19 O2'         58.5010    12.2090    56.0940 O.3          1 AHX422   0.0000
    20 C1'         56.3130    11.5970    55.5470 C.3          1 AHX422   0.0000
    21 N9          55.2410    11.8910    54.5980 N.pl3        1 AHX422   0.0000
    22 C8          53.9890    12.4460    54.8190 C.2          1 AHX422   0.0000
    23 N7          53.2160    12.3950    53.7580 N.2          1 AHX422   0.0000
    24 C5          53.9960    11.7630    52.7780 C.ar         1 AHX422   0.0000
    25 C6          53.7210    11.3510    51.4650 C.ar         1 AHX422   0.0000
    26 N6          52.5490    11.5480    50.8720 N.pl3        1 AHX422   0.0000
    27 N1          54.6930    10.7130    50.8200 N.ar         1 AHX422   0.0000
    28 C2          55.8380    10.4360    51.4380 C.ar         1 AHX422   0.0000
    29 N3          56.1810    10.6340    52.6970 N.ar         1 AHX422   0.0000
    30 C4          55.2130    11.3880    53.3020 C.ar         1 AHX422   0.0000
    31 H1          52.8274    11.0347    63.6227 H            1 AHX422   0.0000
    32 HA          52.5007    13.5362    63.1887 H            1 AHX422   0.0000
    33 HB1         54.6145    12.5321    63.7104 H            1 AHX422   0.0000
    34 HB2         54.7949    13.4757    62.3899 H            1 AHX422   0.0000
    35 HG          54.6825    10.6922    62.5612 H            1 AHX422   0.0000
    36 H6          52.4350    14.8896    61.2243 H            1 AHX422   0.0000
    37 H5'1        54.8380    12.3005    59.2360 H            1 AHX422   0.0000
    38 H5'2        55.4194    13.8128    59.0320 H            1 AHX422   0.0000
    39 H4'         56.9123    12.1783    58.2404 H            1 AHX422   0.0000
    40 H3'         55.9066    14.1085    56.3964 H            1 AHX422   0.0000
    41 H11         57.3017    15.3324    57.4366 H            1 AHX422   0.0000
    42 H2'         57.3793    13.2614    54.7853 H            1 AHX422   0.0000
    43 H13         58.9037    12.8172    56.7781 H            1 AHX422   0.0000
    44 H1'         56.8064    10.7865    55.2315 H            1 AHX422   0.0000
    45 H15         53.7053    12.8423    55.6922 H            1 AHX422   0.0000
    46 H16         52.4045    11.2345    49.9335 H            1 AHX422   0.0000
    47 H17         51.8110    12.0099    51.3640 H            1 AHX422   0.0000
    48 H18         56.5418    10.0164    50.8648 H            1 AHX422   0.0000
    49 H19         51.3513    11.6823    63.3614 H            1 AHX422   0.0000
@<TRIPOS>BOND
     1    1    2       1
     2    2    3       1
     3    2    5       1
     4    3    4       1
     5    5    6       2
     6    5    7      am
     7    7   11       1
     8    8    9      ar
     9    8   10      ar
    10    8   11       1
    11    8   12       1
    12   12   13       1
    13   13   14       1
    14   14   15       1
    15   14   16       1
    16   15   20       1
    17   16   17       1
    18   16   18       1
    19   18   19       1
    20   18   20       1
    21   20   21       1
    22   21   22       1
    23   21   30       1
    24   22   23       2
    25   23   24       1
    26   24   25      ar
    27   24   30      ar
    28   25   26       1
    29   25   27      ar
    30   27   28      ar
    31   28   29      ar
    32   29   30      ar
    33   28   48       1
    34    1   31       1
    35    2   32       1
    36    3   33       1
    37    3   34       1
    38    4   35       1
    39    7   36       1
    40    1   49       1
    41   13   37       1
    42   13   38       1
    43   14   39       1
    44   16   40       1
    45   17   41       1
    46   18   42       1
    47   19   43       1
    48   20   44       1
    49   22   45       1
    50   26   46       1
    51   26   47       1
@<TRIPOS>SUBSTRUCTURE
     1 AHX422      1 GROUP             4 A     AHX     0 **** AHX A 422
