@<TRIPOS>MOLECULE
1jq5_NAD_1_ligand
   70    74     1     0     0
SMALL
NO_CHARGES


@<TRIPOS>ATOM
     1 PA          25.7980    30.8690    24.4520 P.3          1 NAD401   0.0000
     2 O1A         26.7510    31.1600    23.3590 O.co2        1 NAD401   0.0000
     3 O2A         25.4160    32.1060    25.1990 O.co2        1 NAD401  -1.0000
     4 O5B         26.3580    29.9540    25.5620 O.3          1 NAD401   0.0000
     5 C5B         26.8270    28.6950    25.3730 C.3          1 NAD401   0.0000
     6 C4B         27.2480    28.3210    26.7470 C.3          1 NAD401   0.0000
     7 O4B         27.7550    26.9870    26.6700 O.3          1 NAD401   0.0000
     8 C3B         28.3970    29.2060    27.3000 C.3          1 NAD401   0.0000
     9 O3B         28.2170    29.4430    28.7180 O.3          1 NAD401   0.0000
    10 C2B         29.6140    28.3650    26.9480 C.3          1 NAD401   0.0000
    11 O2B         30.7100    28.5730    27.8790 O.3          1 NAD401   0.0000
    12 C1B         29.0640    26.9560    27.0800 C.3          1 NAD401   0.0000
    13 N9A         29.7340    26.0260    26.2440 N.pl3        1 NAD401   0.0000
    14 C8A         30.0380    26.0740    24.8990 C.2          1 NAD401   0.0000
    15 N7A         30.7000    24.9690    24.4760 N.2          1 NAD401   0.0000
    16 C5A         30.8030    24.1990    25.6370 C.ar         1 NAD401   0.0000
    17 C6A         31.3850    22.9270    25.8870 C.ar         1 NAD401   0.0000
    18 N6A         31.9800    22.2010    24.9360 N.pl3        1 NAD401   0.0000
    19 N1A         31.3130    22.4400    27.1870 N.ar         1 NAD401   0.0000
    20 C2A         30.6790    23.2130    28.1470 C.ar         1 NAD401   0.0000
    21 N3A         30.1180    24.3890    27.9920 N.ar         1 NAD401   0.0000
    22 C4A         30.2100    24.8370    26.7190 C.ar         1 NAD401   0.0000
    23 O3          24.5210    30.1010    23.9980 O.3          1 NAD401   0.0000
    24 PN          24.0680    29.4230    22.5730 P.3          1 NAD401   0.0000
    25 O1N         22.7790    28.7370    22.8600 O.co2        1 NAD401   0.0000
    26 O2N         25.1200    28.4710    22.0560 O.co2        1 NAD401  -1.0000
    27 O5D         23.9120    30.7370    21.7320 O.3          1 NAD401   0.0000
    28 C5D         22.7900    31.5970    21.9000 C.3          1 NAD401   0.0000
    29 C4D         23.0890    32.7400    20.9920 C.3          1 NAD401   0.0000
    30 O4D         23.0190    32.2990    19.6090 O.3          1 NAD401   0.0000
    31 C3D         22.1140    33.9260    21.1200 C.3          1 NAD401   0.0000
    32 O3D         22.7510    35.1890    21.4470 O.3          1 NAD401   0.0000
    33 C2D         21.3560    33.8710    19.7500 C.3          1 NAD401   0.0000
    34 O2D         20.9020    35.1740    19.3620 O.3          1 NAD401   0.0000
    35 C1D         22.4250    33.3260    18.8550 C.3          1 NAD401   0.0000
    36 N1N         21.9500    32.7550    17.5980 N.ar         1 NAD401   1.0000
    37 C2N         22.4590    33.4700    16.5630 C.ar         1 NAD401   0.0000
    38 C3N         22.0980    33.1120    15.3640 C.ar         1 NAD401   0.0000
    39 C7N         22.5220    33.7350    14.1010 C.2          1 NAD401   0.0000
    40 O7N         22.0230    33.2420    13.0650 O.2          1 NAD401   0.0000
    41 N7N         23.4020    34.7850    14.0760 N.am         1 NAD401   0.0000
    42 C4N         21.1730    31.9570    15.0590 C.ar         1 NAD401   0.0000
    43 C5N         20.7410    31.2860    16.2430 C.ar         1 NAD401   0.0000
    44 C6N         21.0850    31.6280    17.5450 C.ar         1 NAD401   0.0000
    45 H5B1        27.6006    28.6855    24.7394 H            1 NAD401   0.0000
    46 H5B2        26.1102    28.0862    25.0330 H            1 NAD401   0.0000
    47 H4B         26.4632    28.3534    27.3659 H            1 NAD401   0.0000
    48 H3B         28.4272    30.0760    26.8079 H            1 NAD401   0.0000
    49 H5          28.9644    30.0138    29.0581 H            1 NAD401   0.0000
    50 H2B         29.9083    28.5437    26.0091 H            1 NAD401   0.0000
    51 H7          30.9817    29.5353    27.8644 H            1 NAD401   0.0000
    52 H1B         29.1161    26.6573    28.0329 H            1 NAD401   0.0000
    53 H8A         29.7967    26.8392    24.3022 H            1 NAD401   0.0000
    54 H6A1        32.3755    21.3105    25.1608 H            1 NAD401   0.0000
    55 H6A2        32.0298    22.5482    23.9995 H            1 NAD401   0.0000
    56 H2A         30.6450    22.8279    29.0693 H            1 NAD401   0.0000
    57 H5D1        22.7141    31.9044    22.8486 H            1 NAD401   0.0000
    58 H5D2        21.9439    31.1376    21.6297 H            1 NAD401   0.0000
    59 H4D         24.0161    33.0648    21.1790 H            1 NAD401   0.0000
    60 H3D         21.4594    33.7122    21.8451 H            1 NAD401   0.0000
    61 H17         23.4082    35.4260    20.7315 H            1 NAD401   0.0000
    62 H2D         20.5865    33.2345    19.8022 H            1 NAD401   0.0000
    63 H19         20.7142    35.7186    20.1794 H            1 NAD401   0.0000
    64 H1D         23.1009    34.0384    18.6663 H            1 NAD401   0.0000
    65 H2N         23.0828    34.2368    16.7141 H            1 NAD401   0.0000
    66 H7N1        23.6731    35.1895    13.2026 H            1 NAD401   0.0000
    67 H7N2        23.7731    35.1468    14.9312 H            1 NAD401   0.0000
    68 H4N         20.8955    31.6931    14.1352 H            1 NAD401   0.0000
    69 H5N         20.1361    30.4986    16.1244 H            1 NAD401   0.0000
    70 H6N         20.7608    31.1369    18.3535 H            1 NAD401   0.0000
@<TRIPOS>BOND
     1    1    2      ar
     2    1    3      ar
     3    1    4       1
     4    1   23       1
     5    4    5       1
     6    5    6       1
     7    6    7       1
     8    6    8       1
     9    7   12       1
    10    8    9       1
    11    8   10       1
    12   10   11       1
    13   10   12       1
    14   12   13       1
    15   13   14       1
    16   13   22       1
    17   14   15       2
    18   15   16       1
    19   16   17      ar
    20   16   22      ar
    21   17   18       1
    22   17   19      ar
    23   19   20      ar
    24   20   21      ar
    25   21   22      ar
    26   23   24       1
    27   24   25      ar
    28   24   26      ar
    29   24   27       1
    30   27   28       1
    31   28   29       1
    32   29   30       1
    33   29   31       1
    34   30   35       1
    35   31   32       1
    36   31   33       1
    37   33   34       1
    38   33   35       1
    39   35   36       1
    40   36   37      ar
    41   36   44      ar
    42   37   38      ar
    43   38   39       1
    44   38   42      ar
    45   39   40       2
    46   39   41      am
    47   42   43      ar
    48   43   44      ar
    49   44   70       1
    50    5   45       1
    51    5   46       1
    52    6   47       1
    53    8   48       1
    54    9   49       1
    55   10   50       1
    56   11   51       1
    57   12   52       1
    58   14   53       1
    59   18   54       1
    60   18   55       1
    61   20   56       1
    62   43   69       1
    63   28   57       1
    64   28   58       1
    65   29   59       1
    66   31   60       1
    67   32   61       1
    68   33   62       1
    69   34   63       1
    70   35   64       1
    71   37   65       1
    72   41   66       1
    73   41   67       1
    74   42   68       1
@<TRIPOS>SUBSTRUCTURE
     1 NAD401      1 GROUP             4 A     NAD     0 **** NAD A 401
