@<TRIPOS>MOLECULE
4mx1_1MX_1_ligand
   43    45     1     0     0
SMALL
NO_CHARGES


@<TRIPOS>ATOM
     1 C          -23.9710     8.8080    -6.3600 C.2          1 1MX301   0.0000
     2 N          -24.2870     8.0680    -5.2840 N.pl3        1 1MX301   0.0000
     3 O          -22.1220     8.2520    -9.2320 O.2          1 1MX301   0.0000
     4 C1         -22.8220     8.8190    -8.3660 C.2          1 1MX301   0.0000
     5 N1         -23.1990     8.1510    -7.2600 N.2          1 1MX301   0.0000
     6 O1         -25.5170    14.6200    -8.1710 O.2          1 1MX301   0.0000
     7 C2         -23.2180    10.1600    -8.5610 C.ar         1 1MX301   0.0000
     8 N2         -24.2950    10.0880    -6.4430 N.pl3        1 1MX301   0.0000
     9 O2         -25.1990    15.1030   -14.9190 O.3          1 1MX301   0.0000
    10 C3         -24.0210    10.7840    -7.5220 C.ar         1 1MX301   0.0000
    11 N3         -24.4810    12.0270    -7.6700 N.ar         1 1MX301   0.0000
    12 C4         -24.2190    12.6980    -8.8080 C.ar         1 1MX301   0.0000
    13 N4         -22.9010    10.9390    -9.6780 N.ar         1 1MX301   0.0000
    14 C5         -23.3510    12.1930    -9.8060 C.ar         1 1MX301   0.0000
    15 N5         -24.6770    14.6440   -10.2080 N.am         1 1MX301   0.0000
    16 C6         -24.7670    14.0890    -8.9990 C.2          1 1MX301   0.0000
    17 N6         -25.2110    15.6490   -12.7770 N.pl3        1 1MX301   0.0000
    18 C7         -25.1500    16.0490   -10.4410 C.3          1 1MX301   0.0000
    19 N7         -26.1190    13.6760   -13.3560 N.2          1 1MX301   0.0000
    20 C8         -26.0570    16.0010   -11.6500 C.3          1 1MX301   0.0000
    21 C9         -25.5140    14.7920   -13.7700 C.2          1 1MX301   0.0000
    22 C10        -26.5030    12.4790   -13.9200 C.ar         1 1MX301   0.0000
    23 C11        -26.3360    11.3710   -13.1410 C.ar         1 1MX301   0.0000
    24 C12        -26.7100    10.0730   -13.5600 C.ar         1 1MX301   0.0000
    25 C13        -27.2960     9.9230   -14.8060 C.ar         1 1MX301   0.0000
    26 C14        -27.4810    11.0540   -15.5980 C.ar         1 1MX301   0.0000
    27 C15        -27.0920    12.3420   -15.2030 C.ar         1 1MX301   0.0000
    28 H1         -24.8538     8.4577    -4.5581 H            1 1MX301   0.0000
    29 H2         -23.9554     7.1276    -5.2090 H            1 1MX301   0.0000
    30 H3         -23.0813    12.7581   -10.5857 H            1 1MX301   0.0000
    31 H4         -24.2907    14.1191   -10.9665 H            1 1MX301   0.0000
    32 H5         -24.3132    16.0873   -12.8196 H            1 1MX301   0.0000
    33 H6         -24.3712    16.6511   -10.6169 H            1 1MX301   0.0000
    34 H7         -25.6543    16.3806    -9.6436 H            1 1MX301   0.0000
    35 H8         -26.7691    15.3107   -11.5221 H            1 1MX301   0.0000
    36 H9         -26.4815    16.8938   -11.8006 H            1 1MX301   0.0000
    37 H10        -25.9311    11.4818   -12.2334 H            1 1MX301   0.0000
    38 H11        -26.5548     9.2809   -12.9696 H            1 1MX301   0.0000
    39 H12        -27.5806     9.0210   -15.1305 H            1 1MX301   0.0000
    40 H13        -27.9128    10.9417   -16.4930 H            1 1MX301   0.0000
    41 H14        -27.2245    13.1320   -15.8016 H            1 1MX301   0.0000
    42 H15        -24.7548    10.5314    -5.6736 H            1 1MX301   0.0000
    43 H16        -24.7323    15.9703   -15.0921 H            1 1MX301   0.0000
@<TRIPOS>BOND
     1    1    2       1
     2    1    5       2
     3    1    8       1
     4    3    4       2
     5    4    5       1
     6    4    7       1
     7    6   16       2
     8    7   10      ar
     9    7   13      ar
    10    8   10       1
    11    9   21       1
    12   10   11      ar
    13   11   12      ar
    14   12   14      ar
    15   12   16       1
    16   13   14      ar
    17   15   16      am
    18   15   18       1
    19   17   20       1
    20   17   21       1
    21   18   20       1
    22   19   21       2
    23   19   22       1
    24   22   23      ar
    25   22   27      ar
    26   23   24      ar
    27   24   25      ar
    28   25   26      ar
    29   26   27      ar
    30    2   28       1
    31    2   29       1
    32   27   41       1
    33   14   30       1
    34   15   31       1
    35   17   32       1
    36   18   33       1
    37   18   34       1
    38    9   43       1
    39   20   35       1
    40   20   36       1
    41   23   37       1
    42   24   38       1
    43   25   39       1
    44   26   40       1
    45    8   42       1
@<TRIPOS>SUBSTRUCTURE
     1 1MX301      1 GROUP             4 A     1MX     0 **** 1MX A 301
