@<TRIPOS>MOLECULE
4cbx_ATP_1_ligand
   43    45     1     0     0
SMALL
NO_CHARGES


@<TRIPOS>ATOM
     1 PG           8.2850     8.7970     7.3930 P.3          1 ATP1374   0.0000
     2 O1G          7.9370     9.6510     8.5870 O.co2        1 ATP1374   0.0000
     3 O2G          8.4680     9.5670     6.1080 O.co2        1 ATP1374  -1.0000
     4 O3G          9.3610     7.7720     7.6650 O.co2        1 ATP1374  -1.0000
     5 PB           6.7960     6.4350     7.7780 P.3          1 ATP1374   0.0000
     6 O1B          5.3220     6.1190     7.8750 O.co2        1 ATP1374   0.0000
     7 O2B          7.6670     6.3410     9.0060 O.co2        1 ATP1374  -1.0000
     8 O3B          6.9670     7.9020     7.1270 O.3          1 ATP1374   0.0000
     9 PA           7.4100     3.9310     6.5610 P.3          1 ATP1374   0.0000
    10 O1A          8.8370     3.4400     6.6580 O.co2        1 ATP1374   0.0000
    11 O2A          6.3970     3.4380     7.5620 O.co2        1 ATP1374  -1.0000
    12 O3A          7.4520     5.5420     6.6060 O.3          1 ATP1374   0.0000
    13 O5'          6.8880     3.6420     5.0640 O.3          1 ATP1374   0.0000
    14 C5'          5.6710     4.2060     4.5710 C.3          1 ATP1374   0.0000
    15 C4'          5.7470     4.2950     3.0510 C.3          1 ATP1374   0.0000
    16 O4'          6.3950     3.1380     2.5180 O.3          1 ATP1374   0.0000
    17 C3'          4.3710     4.3780     2.4040 C.3          1 ATP1374   0.0000
    18 O3'          4.2820     5.5770     1.6300 O.3          1 ATP1374   0.0000
    19 C2'          4.2850     3.1840     1.4750 C.3          1 ATP1374   0.0000
    20 O2'          3.7380     3.5580     0.2080 O.3          1 ATP1374   0.0000
    21 C1'          5.7240     2.7220     1.3290 C.3          1 ATP1374   0.0000
    22 N9           5.8090     1.2520     1.1550 N.pl3        1 ATP1374   0.0000
    23 C8           5.4750     0.3160     2.0610 C.2          1 ATP1374   0.0000
    24 N7           5.6810    -0.9340     1.5680 N.2          1 ATP1374   0.0000
    25 C5           6.1590    -0.8040     0.3170 C.ar         1 ATP1374   0.0000
    26 C6           6.5860    -1.7160    -0.7680 C.ar         1 ATP1374   0.0000
    27 N6           6.5460    -3.0630    -0.6160 N.pl3        1 ATP1374   0.0000
    28 N1           7.0200    -1.1580    -1.9200 N.ar         1 ATP1374   0.0000
    29 C2           7.0690     0.1750    -2.0930 C.ar         1 ATP1374   0.0000
    30 N3           6.6970     1.0590    -1.1530 N.ar         1 ATP1374   0.0000
    31 C4           6.2380     0.6390     0.0510 C.ar         1 ATP1374   0.0000
    32 H5'1         5.5455     5.1208     4.9548 H            1 ATP1374   0.0000
    33 H5'2         4.9009     3.6252     4.8350 H            1 ATP1374   0.0000
    34 H4'          6.2736     5.1070     2.7993 H            1 ATP1374   0.0000
    35 H3'          3.6491     4.3451     3.0952 H            1 ATP1374   0.0000
    36 H5           3.9347     6.3189     2.2035 H            1 ATP1374   0.0000
    37 H2'          3.7313     2.4624     1.8906 H            1 ATP1374   0.0000
    38 H7           3.2473     2.7807    -0.1858 H            1 ATP1374   0.0000
    39 H1'          6.1386     3.1738     0.5391 H            1 ATP1374   0.0000
    40 H9           5.1221     0.5133     2.9756 H            1 ATP1374   0.0000
    41 H10          6.8396    -3.6594    -1.3631 H            1 ATP1374   0.0000
    42 H11          6.2229    -3.4598     0.2431 H            1 ATP1374   0.0000
    43 H12          7.4002     0.5266    -2.9686 H            1 ATP1374   0.0000
@<TRIPOS>BOND
     1    1    2      ar
     2    1    3      ar
     3    1    4      ar
     4    1    8       1
     5    5    6      ar
     6    5    7      ar
     7    5    8       1
     8    5   12       1
     9    9   10      ar
    10    9   11      ar
    11    9   12       1
    12    9   13       1
    13   13   14       1
    14   14   15       1
    15   15   16       1
    16   15   17       1
    17   16   21       1
    18   17   18       1
    19   17   19       1
    20   19   20       1
    21   19   21       1
    22   21   22       1
    23   22   23       1
    24   22   31       1
    25   23   24       2
    26   24   25       1
    27   25   26      ar
    28   25   31      ar
    29   26   27       1
    30   26   28      ar
    31   28   29      ar
    32   29   30      ar
    33   30   31      ar
    34   29   43       1
    35   27   42       1
    36   27   41       1
    37   23   40       1
    38   14   32       1
    39   14   33       1
    40   15   34       1
    41   17   35       1
    42   18   36       1
    43   19   37       1
    44   20   38       1
    45   21   39       1
@<TRIPOS>SUBSTRUCTURE
     1 ATP1374     1 GROUP             4 A     ATP     0 **** ATP A1374
