@<TRIPOS>MOLECULE
2wuu_NHW_1_ligand
  124   126     1     0     0
SMALL
NO_CHARGES


@<TRIPOS>ATOM
     1 CEM         -3.9330   -10.1400    28.2120 C.3          1 NHW1422   0.0000
     2 CDM         -4.2060   -10.2370    26.7080 C.3          1 NHW1422   0.0000
     3 CCM         -2.9300   -10.6930    25.9570 C.3          1 NHW1422   0.0000
     4 CBM         -3.2860   -10.7540    24.4510 C.3          1 NHW1422   0.0000
     5 CAM         -2.0400   -11.1500    23.5780 C.3          1 NHW1422   0.0000
     6 C9M         -1.4760   -12.5660    23.9580 C.3          1 NHW1422   0.0000
     7 C8M         -0.2720   -12.9420    23.0660 C.3          1 NHW1422   0.0000
     8 C7M         -0.6700   -13.2930    21.6280 C.3          1 NHW1422   0.0000
     9 C6M          0.5510   -13.6750    20.7980 C.3          1 NHW1422   0.0000
    10 C5M          0.2200   -13.9470    19.3140 C.3          1 NHW1422   0.0000
    11 C4M         -0.4860   -15.3580    19.1240 C.3          1 NHW1422   0.0000
    12 C3M         -0.9580   -15.5780    17.7260 C.3          1 NHW1422   0.0000
    13 C2M         -1.4560   -17.0180    17.5960 C.3          1 NHW1422   0.0000
    14 C1M         -2.1690   -17.3020    16.2800 C.2          1 NHW1422   0.0000
    15 O1M         -2.5790   -16.4430    15.5240 O.2          1 NHW1422   0.0000
    16 CP          -2.1700   -18.7660    15.7230 C.3          1 NHW1422   0.0000
    17 S1          -0.4560   -19.1690    15.0070 S.3          1 NHW1422   0.0000
    18 C2          -0.6320   -18.4570    13.3360 C.3          1 NHW1422   0.0000
    19 C3           0.2580   -17.1250    13.2320 C.3          1 NHW1422   0.0000
    20 N4           0.1020   -16.5540    11.8620 N.am         1 NHW1422   0.0000
    21 C5           0.7530   -17.0210    10.8110 C.2          1 NHW1422   0.0000
    22 O5           1.6700   -17.8520    10.8620 O.2          1 NHW1422   0.0000
    23 C6           0.3950   -16.2930     9.4980 C.3          1 NHW1422   0.0000
    24 C7           1.5760   -16.1370     8.5250 C.3          1 NHW1422   0.0000
    25 N8           2.7030   -15.3970     9.1120 N.am         1 NHW1422   0.0000
    26 C9           2.6060   -14.0770     9.2890 C.2          1 NHW1422   0.0000
    27 O9           1.5530   -13.4560     9.1130 O.2          1 NHW1422   0.0000
    28 C10          3.8390   -13.4650     9.9820 C.3          1 NHW1422   0.0000
    29 O10          4.9650   -14.2340     9.6830 O.3          1 NHW1422   0.0000
    30 C11          3.6600   -13.3170    11.5170 C.3          1 NHW1422   0.0000
    31 C13          3.3370   -14.6700    12.1820 C.3          1 NHW1422   0.0000
    32 C14          2.4750   -12.4020    11.8010 C.3          1 NHW1422   0.0000
    33 C12          4.9760   -12.7810    12.1430 C.3          1 NHW1422   0.0000
    34 O6A          5.2900   -11.5230    11.4980 O.3          1 NHW1422   0.0000
    35 P2A          6.7080   -11.2760    10.8320 P.3          1 NHW1422   0.0000
    36 O4A          7.1970   -12.5490    10.2480 O.co2        1 NHW1422   0.0000
    37 O5A          6.6730   -10.0710    10.0380 O.co2        1 NHW1422  -1.0000
    38 O3A          7.5850   -11.0380    12.1020 O.3          1 NHW1422   0.0000
    39 P1A          7.8010    -9.6410    12.9280 P.3          1 NHW1422   0.0000
    40 O2A          9.1630    -9.0770    12.4620 O.co2        1 NHW1422   0.0000
    41 O1A          6.5420    -8.7200    12.7370 O.co2        1 NHW1422  -1.0000
    42 O5X          7.8340   -10.1470    14.4070 O.3          1 NHW1422   0.0000
    43 C5X          8.7380   -11.1870    14.7670 C.3          1 NHW1422   0.0000
    44 C4X          8.3380   -11.5840    16.1980 C.3          1 NHW1422   0.0000
    45 O4X          7.0990   -12.2440    16.0280 O.3          1 NHW1422   0.0000
    46 C3X          9.3100   -12.6010    16.7870 C.3          1 NHW1422   0.0000
    47 O3X          9.4640   -12.2980    18.1840 O.3          1 NHW1422   0.0000
    48 P3X         10.9100   -12.4620    18.8390 P.3          1 NHW1422   0.0000
    49 O7A         11.3260   -14.0110    18.7150 O.co2        1 NHW1422   0.0000
    50 O8A         10.8190   -12.1670    20.3810 O.co2        1 NHW1422  -1.0000
    51 O9A         11.8780   -11.5480    18.1380 O.co2        1 NHW1422  -1.0000
    52 C2X          8.5980   -13.9140    16.5620 C.3          1 NHW1422   0.0000
    53 O2X          8.9970   -14.8900    17.5440 O.3          1 NHW1422   0.0000
    54 C1X          7.1600   -13.4590    16.7780 C.3          1 NHW1422   0.0000
    55 N9A          6.2350   -14.4490    16.1790 N.pl3        1 NHW1422   0.0000
    56 C8A          6.3350   -15.0870    14.9660 C.2          1 NHW1422   0.0000
    57 N7A          5.3090   -15.9250    14.8300 N.2          1 NHW1422   0.0000
    58 C5A          4.5280   -15.8200    15.9440 C.ar         1 NHW1422   0.0000
    59 C4A          5.1200   -14.8960    16.7870 C.ar         1 NHW1422   0.0000
    60 N3A          4.5670   -14.5820    18.0000 N.ar         1 NHW1422   0.0000
    61 C2A          3.4490   -15.1910    18.3560 C.ar         1 NHW1422   0.0000
    62 N1A          2.8450   -16.0940    17.5000 N.ar         1 NHW1422   0.0000
    63 C6A          3.3700   -16.4720    16.3210 C.ar         1 NHW1422   0.0000
    64 N6A          2.7620   -17.4500    15.5490 N.pl3        1 NHW1422   0.0000
    65 HEM1        -4.7642    -9.8451    28.6833 H            1 NHW1422   0.0000
    66 HEM2        -3.6533   -11.0354    28.5584 H            1 NHW1422   0.0000
    67 HEM3        -3.2033    -9.4762    28.3762 H            1 NHW1422   0.0000
    68 HDM1        -4.4875    -9.3406    26.3655 H            1 NHW1422   0.0000
    69 HDM2        -4.9375   -10.8998    26.5478 H            1 NHW1422   0.0000
    70 HCM1        -2.6464   -11.5961    26.2794 H            1 NHW1422   0.0000
    71 HCM2        -2.1901   -10.0376    26.1084 H            1 NHW1422   0.0000
    72 HBM1        -3.6151    -9.8561    24.1586 H            1 NHW1422   0.0000
    73 HBM2        -4.0068   -11.4337    24.3151 H            1 NHW1422   0.0000
    74 HAM1        -1.3207   -10.4691    23.7157 H            1 NHW1422   0.0000
    75 HAM2        -2.3108   -11.1588    22.6154 H            1 NHW1422   0.0000
    76 H9M1        -2.1973   -13.2480    23.8377 H            1 NHW1422   0.0000
    77 H9M2        -1.1835   -12.5553    24.9142 H            1 NHW1422   0.0000
    78 H8M1         0.1879   -13.7326    23.4701 H            1 NHW1422   0.0000
    79 H8M2         0.3588   -12.1665    23.0406 H            1 NHW1422   0.0000
    80 H7M1        -1.1145   -12.5010    21.2096 H            1 NHW1422   0.0000
    81 H7M2        -1.3077   -14.0631    21.6444 H            1 NHW1422   0.0000
    82 H6M1         0.9552   -14.5016    21.1897 H            1 NHW1422   0.0000
    83 H6M2         1.2126   -12.9266    20.8436 H            1 NHW1422   0.0000
    84 H5M1         1.0680   -13.9340    18.7842 H            1 NHW1422   0.0000
    85 H5M2        -0.3922   -13.2299    18.9809 H            1 NHW1422   0.0000
    86 H4M1        -1.2725   -15.4084    19.7395 H            1 NHW1422   0.0000
    87 H4M2         0.1675   -16.0776    19.3586 H            1 NHW1422   0.0000
    88 H3M1        -0.2033   -15.4243    17.0882 H            1 NHW1422   0.0000
    89 H3M2        -1.7035   -14.9444    17.5192 H            1 NHW1422   0.0000
    90 H2M1        -2.0919   -17.2012    18.3457 H            1 NHW1422   0.0000
    91 H2M2        -0.6699   -17.6318    17.6682 H            1 NHW1422   0.0000
    92 HP1         -2.8600   -18.8491    15.0040 H            1 NHW1422   0.0000
    93 HP2         -2.3811   -19.4045    16.4631 H            1 NHW1422   0.0000
    94 H30         -1.5917   -18.2317    13.1680 H            1 NHW1422   0.0000
    95 H31         -0.3213   -19.1206    12.6555 H            1 NHW1422   0.0000
    96 H32          1.2188   -17.3481    13.3966 H            1 NHW1422   0.0000
    97 H33         -0.0509   -16.4595    13.9115 H            1 NHW1422   0.0000
    98 H34         -0.5228   -15.7839    11.7336 H            1 NHW1422   0.0000
    99 H35          0.0542   -15.3812     9.7272 H            1 NHW1422   0.0000
   100 H36         -0.3251   -16.8119     9.0374 H            1 NHW1422   0.0000
   101 H37          1.2590   -15.6458     7.7137 H            1 NHW1422   0.0000
   102 H38          1.8945   -17.0472     8.2603 H            1 NHW1422   0.0000
   103 H39          3.5376   -15.8797     9.3772 H            1 NHW1422   0.0000
   104 H40          3.9823   -12.5516     9.6011 H            1 NHW1422   0.0000
   105 H41          5.7767   -13.6500     9.6817 H            1 NHW1422   0.0000
   106 H42          3.2282   -14.5395    13.1675 H            1 NHW1422   0.0000
   107 H43          2.4890   -15.0358    11.7986 H            1 NHW1422   0.0000
   108 H44          4.0843   -15.3122    12.0113 H            1 NHW1422   0.0000
   109 H45          2.3579   -12.3053    12.7894 H            1 NHW1422   0.0000
   110 H46          2.6431   -11.5034    11.3957 H            1 NHW1422   0.0000
   111 H47          1.6464   -12.7969    11.4042 H            1 NHW1422   0.0000
   112 H48          5.7166   -13.4356    11.9914 H            1 NHW1422   0.0000
   113 H49          4.8527   -12.6387    13.1251 H            1 NHW1422   0.0000
   114 H5X1         9.6814   -10.8561    14.7447 H            1 NHW1422   0.0000
   115 H5X2         8.6431   -11.9656    14.1467 H            1 NHW1422   0.0000
   116 H4X          8.2467   -10.7816    16.7878 H            1 NHW1422   0.0000
   117 H3X         10.1897   -12.5793    16.3120 H            1 NHW1422   0.0000
   118 H2X          8.7391   -14.2521    15.6315 H            1 NHW1422   0.0000
   119 H55          9.9375   -14.7086    17.8313 H            1 NHW1422   0.0000
   120 H1X          6.9619   -13.3063    17.7462 H            1 NHW1422   0.0000
   121 H8A          7.0614   -14.9449    14.2936 H            1 NHW1422   0.0000
   122 H2A          3.0386   -14.9981    19.2473 H            1 NHW1422   0.0000
   123 H6A1         1.9236   -17.8907    15.8697 H            1 NHW1422   0.0000
   124 H6A2         3.1618   -17.7147    14.6715 H            1 NHW1422   0.0000
@<TRIPOS>BOND
     1    1    2       1
     2    2    3       1
     3    3    4       1
     4    4    5       1
     5    5    6       1
     6    6    7       1
     7    7    8       1
     8    8    9       1
     9    9   10       1
    10   10   11       1
    11   11   12       1
    12   12   13       1
    13   13   14       1
    14   14   15       2
    15   14   16       1
    16   16   17       1
    17   17   18       1
    18   18   19       1
    19   19   20       1
    20   20   21      am
    21   21   22       2
    22   21   23       1
    23   23   24       1
    24   24   25       1
    25   25   26      am
    26   26   27       2
    27   26   28       1
    28   28   29       1
    29   28   30       1
    30   30   31       1
    31   30   32       1
    32   30   33       1
    33   33   34       1
    34   34   35       1
    35   35   36      ar
    36   35   37      ar
    37   35   38       1
    38   38   39       1
    39   39   40      ar
    40   39   41      ar
    41   39   42       1
    42   42   43       1
    43   43   44       1
    44   44   45       1
    45   44   46       1
    46   45   54       1
    47   46   47       1
    48   46   52       1
    49   47   48       1
    50   48   49      ar
    51   48   50      ar
    52   48   51      ar
    53   52   53       1
    54   52   54       1
    55   54   55       1
    56   55   56       1
    57   55   59       1
    58   56   57       2
    59   57   58       1
    60   58   59      ar
    61   58   63      ar
    62   59   60      ar
    63   60   61      ar
    64   61   62      ar
    65   62   63      ar
    66   63   64       1
    67    1   65       1
    68    1   66       1
    69    1   67       1
    70    2   68       1
    71    2   69       1
    72    3   70       1
    73    3   71       1
    74    4   72       1
    75    4   73       1
    76    5   74       1
    77    5   75       1
    78    6   76       1
    79    6   77       1
    80    7   78       1
    81    7   79       1
    82    8   80       1
    83    8   81       1
    84    9   82       1
    85    9   83       1
    86   10   84       1
    87   10   85       1
    88   11   86       1
    89   11   87       1
    90   12   88       1
    91   12   89       1
    92   13   90       1
    93   13   91       1
    94   16   92       1
    95   16   93       1
    96   18   94       1
    97   18   95       1
    98   19   96       1
    99   19   97       1
   100   20   98       1
   101   23   99       1
   102   23  100       1
   103   24  101       1
   104   24  102       1
   105   25  103       1
   106   28  104       1
   107   29  105       1
   108   31  106       1
   109   31  107       1
   110   31  108       1
   111   32  109       1
   112   32  110       1
   113   32  111       1
   114   33  112       1
   115   33  113       1
   116   64  124       1
   117   64  123       1
   118   43  114       1
   119   43  115       1
   120   44  116       1
   121   46  117       1
   122   61  122       1
   123   56  121       1
   124   52  118       1
   125   53  119       1
   126   54  120       1
@<TRIPOS>SUBSTRUCTURE
     1 NHW1422     1 GROUP             4 A     NHW     0 **** NHW A1422
