@<TRIPOS>MOLECULE
5hid_B1E_2_ligand
   59    62     1     0     0
SMALL
NO_CHARGES


@<TRIPOS>ATOM
     1 C1          -4.0830    11.9630   -10.8720 C.ar         1 B1E801   0.0000
     2 C2          -3.7680    10.5720   -10.9080 C.ar         1 B1E801   0.0000
     3 C3          -3.2010    10.0280   -12.0710 C.ar         1 B1E801   0.0000
     4 C4          -3.0070    10.8260   -13.1750 C.ar         1 B1E801   0.0000
     5 C5          -3.3320    12.2010   -13.1560 C.ar         1 B1E801   0.0000
     6 C6          -3.8520    12.7620   -11.9980 C.ar         1 B1E801   0.0000
     7 C7          -4.5200    12.5450    -9.5810 C.2          1 B1E801   0.0000
     8 N8          -4.4860    11.7320    -8.4730 N.pl3        1 B1E801   0.0000
     9 C9          -4.2180    10.3940    -8.6240 C.2          1 B1E801   0.0000
    10 N10         -3.9230     9.8350    -9.7690 N.2          1 B1E801   0.0000
    11 O11         -4.7790    13.7350    -9.5170 O.2          1 B1E801   0.0000
    12 N12         -3.1450    13.0520   -14.2650 N.pl3        1 B1E801   0.0000
    13 C13         -2.8900    12.6300   -15.5880 C.ar         1 B1E801   0.0000
    14 C14         -3.8070    11.9140   -16.4070 C.ar         1 B1E801   0.0000
    15 C15         -3.4910    11.5910   -17.7310 C.ar         1 B1E801   0.0000
    16 C16         -2.2800    11.9910   -18.2710 C.ar         1 B1E801   0.0000
    17 C17         -1.3700    12.7090   -17.4790 C.ar         1 B1E801   0.0000
    18 C18         -1.6810    13.0480   -16.1510 C.ar         1 B1E801   0.0000
    19 C19         -5.1430    11.4100   -15.9220 C.3          1 B1E801   0.0000
    20 N20         -0.1830    13.1200   -18.1080 N.am         1 B1E801   0.0000
    21 C21          1.0600    13.2070   -17.5900 C.2          1 B1E801   0.0000
    22 C22          2.1320    13.6300   -18.5040 C.ar         1 B1E801   0.0000
    23 O23          1.3110    12.9020   -16.4360 O.2          1 B1E801   0.0000
    24 C24          3.4500    13.1840   -18.3000 C.ar         1 B1E801   0.0000
    25 C25          4.4820    13.5650   -19.1330 C.ar         1 B1E801   0.0000
    26 C26          4.1550    14.3200   -20.2640 C.ar         1 B1E801   0.0000
    27 C27          2.8560    14.7850   -20.4850 C.ar         1 B1E801   0.0000
    28 C28          1.8430    14.4480   -19.5940 C.ar         1 B1E801   0.0000
    29 C29          5.8940    13.0550   -18.8900 C.3          1 B1E801   0.0000
    30 C30          6.1680    12.7740   -17.4710 C.1          1 B1E801   0.0000
    31 C31          6.9600    14.0660   -19.3110 C.3          1 B1E801   0.0000
    32 C32          6.1120    11.7610   -19.6930 C.3          1 B1E801   0.0000
    33 C33         -4.8720    12.2290    -7.1390 C.3          1 B1E801   0.0000
    34 N34          6.4240    12.5320   -16.3850 N.1          1 B1E801   0.0000
    35 H1          -2.9388     9.0633   -12.0972 H            1 B1E801   0.0000
    36 H2          -2.6279    10.4243   -14.0086 H            1 B1E801   0.0000
    37 H3          -4.0621    13.7392   -11.9679 H            1 B1E801   0.0000
    38 H4          -4.2502     9.8128    -7.8109 H            1 B1E801   0.0000
    39 H5          -3.1974    14.0370   -14.1005 H            1 B1E801   0.0000
    40 H6          -4.1394    11.0714   -18.2874 H            1 B1E801   0.0000
    41 H7          -2.0550    11.7696   -19.2199 H            1 B1E801   0.0000
    42 H8          -1.0373    13.5882   -15.6090 H            1 B1E801   0.0000
    43 H9          -5.6123    10.9384   -16.6685 H            1 B1E801   0.0000
    44 H10         -5.0039    10.7752   -15.1619 H            1 B1E801   0.0000
    45 H11         -5.6987    12.1822   -15.6139 H            1 B1E801   0.0000
    46 H12         -0.2710    13.3835   -19.0686 H            1 B1E801   0.0000
    47 H13          3.6444    12.5748   -17.5312 H            1 B1E801   0.0000
    48 H14          4.8688    14.5324   -20.9313 H            1 B1E801   0.0000
    49 H15          2.6558    15.3574   -21.2801 H            1 B1E801   0.0000
    50 H16          0.9140    14.7903   -19.7346 H            1 B1E801   0.0000
    51 H17          7.8680    13.6868   -19.1326 H            1 B1E801   0.0000
    52 H18          6.8665    14.2620   -20.2871 H            1 B1E801   0.0000
    53 H19          6.8430    14.9107   -18.7888 H            1 B1E801   0.0000
    54 H20          7.0399    11.4231   -19.5352 H            1 B1E801   0.0000
    55 H21          5.4513    11.0706   -19.3984 H            1 B1E801   0.0000
    56 H22          5.9866    11.9482   -20.6673 H            1 B1E801   0.0000
    57 H23         -4.7804    11.4920    -6.4694 H            1 B1E801   0.0000
    58 H24         -4.2760    12.9895    -6.8813 H            1 B1E801   0.0000
    59 H25         -5.8213    12.5425    -7.1619 H            1 B1E801   0.0000
@<TRIPOS>BOND
     1    1    2      ar
     2    1    6      ar
     3    1    7       1
     4    2    3      ar
     5    2   10       1
     6    3    4      ar
     7    4    5      ar
     8    5    6      ar
     9    5   12       1
    10    7    8       1
    11    7   11       2
    12    8    9       1
    13    8   33       1
    14    9   10       2
    15   12   13       1
    16   13   14      ar
    17   13   18      ar
    18   14   15      ar
    19   14   19       1
    20   15   16      ar
    21   16   17      ar
    22   17   18      ar
    23   17   20       1
    24   20   21      am
    25   21   22       1
    26   21   23       2
    27   22   24      ar
    28   22   28      ar
    29   24   25      ar
    30   25   26      ar
    31   25   29       1
    32   26   27      ar
    33   27   28      ar
    34   29   30       1
    35   29   31       1
    36   29   32       1
    37   30   34       3
    38    3   35       1
    39    4   36       1
    40    6   37       1
    41    9   38       1
    42   12   39       1
    43   15   40       1
    44   16   41       1
    45   18   42       1
    46   19   43       1
    47   19   44       1
    48   19   45       1
    49   20   46       1
    50   24   47       1
    51   26   48       1
    52   27   49       1
    53   28   50       1
    54   31   51       1
    55   31   52       1
    56   31   53       1
    57   32   54       1
    58   32   55       1
    59   32   56       1
    60   33   57       1
    61   33   58       1
    62   33   59       1
@<TRIPOS>SUBSTRUCTURE
     1 B1E801      1 GROUP             4 B     B1E     0 **** B1E B 801
