@<TRIPOS>MOLECULE
2q1w_NAD_1_ligand
   70    74     1     0     0
SMALL
NO_CHARGES


@<TRIPOS>ATOM
     1 PA          17.5170     7.9930    49.7020 P.3          1 NAD501   0.0000
     2 O1A         16.4730     8.8700    49.1750 O.co2        1 NAD501   0.0000
     3 O2A         18.9220     8.4570    49.4970 O.co2        1 NAD501  -1.0000
     4 O5B         17.3050     6.4500    49.1880 O.3          1 NAD501   0.0000
     5 C5B         16.1000     5.8470    48.7420 C.3          1 NAD501   0.0000
     6 C4B         16.4290     5.2440    47.3660 C.3          1 NAD501   0.0000
     7 O4B         15.3780     4.4210    46.9330 O.3          1 NAD501   0.0000
     8 C3B         16.5550     6.3250    46.3030 C.3          1 NAD501   0.0000
     9 O3B         17.7520     6.1530    45.5720 O.3          1 NAD501   0.0000
    10 C2B         15.2610     6.2140    45.5210 C.3          1 NAD501   0.0000
    11 O2B         15.3960     6.6380    44.2100 O.3          1 NAD501   0.0000
    12 C1B         14.9940     4.7230    45.6310 C.3          1 NAD501   0.0000
    13 N9A         13.5750     4.4280    45.4430 N.pl3        1 NAD501   0.0000
    14 C8A         12.4730     5.1640    45.8430 C.2          1 NAD501   0.0000
    15 N7A         11.3590     4.5550    45.4100 N.2          1 NAD501   0.0000
    16 C5A         11.7340     3.4380    44.7020 C.ar         1 NAD501   0.0000
    17 C6A         11.0390     2.4110    44.0260 C.ar         1 NAD501   0.0000
    18 N6A          9.7240     2.4780    43.8900 N.pl3        1 NAD501   0.0000
    19 N1A         11.7140     1.3700    43.3940 N.ar         1 NAD501   0.0000
    20 C2A         13.1010     1.3270    43.4030 C.ar         1 NAD501   0.0000
    21 N3A         13.7910     2.3210    44.0740 N.ar         1 NAD501   0.0000
    22 C4A         13.1300     3.3550    44.7100 C.ar         1 NAD501   0.0000
    23 O3          17.2310     7.8450    51.2490 O.3          1 NAD501   0.0000
    24 PN          18.1110     7.1130    52.3420 P.3          1 NAD501   0.0000
    25 O1N         18.4810     8.1520    53.3080 O.co2        1 NAD501   0.0000
    26 O2N         19.2050     6.2870    51.7180 O.co2        1 NAD501  -1.0000
    27 O5D         17.0270     6.1660    52.9950 O.3          1 NAD501   0.0000
    28 C5D         17.1680     4.7550    52.9080 C.3          1 NAD501   0.0000
    29 C4D         16.1220     4.0630    53.7920 C.3          1 NAD501   0.0000
    30 O4D         16.3310     4.3850    55.1600 O.3          1 NAD501   0.0000
    31 C3D         14.6790     4.4170    53.4740 C.3          1 NAD501   0.0000
    32 O3D         13.8600     3.3050    53.7250 O.3          1 NAD501   0.0000
    33 C2D         14.2830     5.3890    54.5530 C.3          1 NAD501   0.0000
    34 O2D         12.8940     5.3340    54.8060 O.3          1 NAD501   0.0000
    35 C1D         15.1270     4.9090    55.7220 C.3          1 NAD501   0.0000
    36 N1N         15.3630     6.0140    56.6600 N.ar         1 NAD501   1.0000
    37 C2N         16.2840     7.0110    56.3680 C.ar         1 NAD501   0.0000
    38 C3N         16.4900     8.0470    57.2690 C.ar         1 NAD501   0.0000
    39 C7N         17.3030     9.2380    56.9140 C.2          1 NAD501   0.0000
    40 O7N         17.2600    10.2900    57.8350 O.2          1 NAD501   0.0000
    41 N7N         18.0010     9.3180    55.7740 N.am         1 NAD501   0.0000
    42 C4N         15.7660     8.0870    58.4650 C.ar         1 NAD501   0.0000
    43 C5N         14.8510     7.0630    58.7430 C.ar         1 NAD501   0.0000
    44 C6N         14.6540     6.0290    57.8330 C.ar         1 NAD501   0.0000
    45 H5B1        15.3759     6.5317    48.6597 H            1 NAD501   0.0000
    46 H5B2        15.8111     5.1310    49.3776 H            1 NAD501   0.0000
    47 H4B         17.2767     4.7161    47.4184 H            1 NAD501   0.0000
    48 H3B         16.5808     7.2168    46.7546 H            1 NAD501   0.0000
    49 H5          17.7458     5.2568    45.1284 H            1 NAD501   0.0000
    50 H2B         14.5360     6.7294    45.9778 H            1 NAD501   0.0000
    51 H7          16.0840     6.0785    43.7479 H            1 NAD501   0.0000
    52 H1B         15.5500     4.2156    44.9726 H            1 NAD501   0.0000
    53 H8A         12.5026     6.0133    46.3701 H            1 NAD501   0.0000
    54 H6A1         9.2331     1.7502    43.4111 H            1 NAD501   0.0000
    55 H6A2         9.2215     3.2564    44.2661 H            1 NAD501   0.0000
    56 H2A         13.5918     0.5926    42.9341 H            1 NAD501   0.0000
    57 H5D1        18.0837     4.4949    53.2144 H            1 NAD501   0.0000
    58 H5D2        17.0402     4.4681    51.9586 H            1 NAD501   0.0000
    59 H4D         16.2301     3.0746    53.6855 H            1 NAD501   0.0000
    60 H3D         14.5621     4.7878    52.5527 H            1 NAD501   0.0000
    61 H17         14.2578     2.7574    54.4611 H            1 NAD501   0.0000
    62 H2D         14.5493     6.3176    54.2945 H            1 NAD501   0.0000
    63 H19         12.3938     5.5633    53.9710 H            1 NAD501   0.0000
    64 H1D         14.6411     4.1751    56.1967 H            1 NAD501   0.0000
    65 H2N         16.7979     6.9830    55.5106 H            1 NAD501   0.0000
    66 H7N1        18.5364    10.1381    55.5720 H            1 NAD501   0.0000
    67 H7N2        17.9869     8.5576    55.1247 H            1 NAD501   0.0000
    68 H4N         15.8997     8.8366    59.1132 H            1 NAD501   0.0000
    69 H5N         14.3365     7.0753    59.6004 H            1 NAD501   0.0000
    70 H6N         13.9987     5.3008    58.0337 H            1 NAD501   0.0000
@<TRIPOS>BOND
     1    1    2      ar
     2    1    3      ar
     3    1    4       1
     4    1   23       1
     5    4    5       1
     6    5    6       1
     7    6    7       1
     8    6    8       1
     9    7   12       1
    10    8    9       1
    11    8   10       1
    12   10   11       1
    13   10   12       1
    14   12   13       1
    15   13   14       1
    16   13   22       1
    17   14   15       2
    18   15   16       1
    19   16   17      ar
    20   16   22      ar
    21   17   18       1
    22   17   19      ar
    23   19   20      ar
    24   20   21      ar
    25   21   22      ar
    26   23   24       1
    27   24   25      ar
    28   24   26      ar
    29   24   27       1
    30   27   28       1
    31   28   29       1
    32   29   30       1
    33   29   31       1
    34   30   35       1
    35   31   32       1
    36   31   33       1
    37   33   34       1
    38   33   35       1
    39   35   36       1
    40   36   37      ar
    41   36   44      ar
    42   37   38      ar
    43   38   39       1
    44   38   42      ar
    45   39   40       2
    46   39   41      am
    47   42   43      ar
    48   43   44      ar
    49   44   70       1
    50    5   45       1
    51    5   46       1
    52    6   47       1
    53    8   48       1
    54    9   49       1
    55   10   50       1
    56   11   51       1
    57   12   52       1
    58   14   53       1
    59   18   54       1
    60   18   55       1
    61   20   56       1
    62   43   69       1
    63   28   57       1
    64   28   58       1
    65   29   59       1
    66   31   60       1
    67   32   61       1
    68   33   62       1
    69   34   63       1
    70   35   64       1
    71   37   65       1
    72   41   66       1
    73   41   67       1
    74   42   68       1
@<TRIPOS>SUBSTRUCTURE
     1 NAD501      1 GROUP             4 A     NAD     0 **** NAD A 501
