@<TRIPOS>MOLECULE
2dbq_NAP_1_ligand
   73    77     1     0     0
SMALL
NO_CHARGES


@<TRIPOS>ATOM
     1 PA          40.7340    69.8010    90.1490 P.3          1 NAP401   0.0000
     2 O1A         41.6700    69.7730    89.0040 O.co2        1 NAP401   0.0000
     3 O2A         39.3510    70.3270    90.0990 O.co2        1 NAP401  -1.0000
     4 O5B         40.4140    68.2220    90.1890 O.3          1 NAP401   0.0000
     5 C5B         39.2530    67.6930    90.8390 C.3          1 NAP401   0.0000
     6 C4B         38.7590    66.4260    90.1330 C.3          1 NAP401   0.0000
     7 O4B         37.6480    65.8890    90.8750 O.3          1 NAP401   0.0000
     8 C3B         38.2290    66.7550    88.7340 C.3          1 NAP401   0.0000
     9 O3B         38.5190    65.6800    87.8370 O.3          1 NAP401   0.0000
    10 C2B         36.7230    66.8490    88.9790 C.3          1 NAP401   0.0000
    11 O2B         36.0040    66.5810    87.7710 O.3          1 NAP401   0.0000
    12 C1B         36.5890    65.6610    89.9310 C.3          1 NAP401   0.0000
    13 N9A         35.2730    65.6160    90.6100 N.pl3        1 NAP401   0.0000
    14 C8A         34.6320    66.6380    91.1740 C.2          1 NAP401   0.0000
    15 N7A         33.4690    66.2220    91.6690 N.2          1 NAP401   0.0000
    16 C5A         33.3650    64.9200    91.4190 C.ar         1 NAP401   0.0000
    17 C6A         32.4070    63.9490    91.6840 C.ar         1 NAP401   0.0000
    18 N6A         31.2700    64.2660    92.2970 N.pl3        1 NAP401   0.0000
    19 N1A         32.6340    62.6860    91.2920 N.ar         1 NAP401   0.0000
    20 C2A         33.7440    62.3480    90.6590 C.ar         1 NAP401   0.0000
    21 N3A         34.6740    63.2500    90.3860 N.ar         1 NAP401   0.0000
    22 C4A         34.5170    64.5310    90.7480 C.ar         1 NAP401   0.0000
    23 O3          41.3540    69.8720    91.6370 O.3          1 NAP401   0.0000
    24 PN          42.8800    69.5000    92.0060 P.3          1 NAP401   0.0000
    25 O1N         43.0310    68.2690    91.1990 O.co2        1 NAP401   0.0000
    26 O2N         43.5280    70.7960    91.7060 O.co2        1 NAP401  -1.0000
    27 O5D         42.5190    69.3250    93.5660 O.3          1 NAP401   0.0000
    28 C5D         41.4380    68.4870    93.9850 C.3          1 NAP401   0.0000
    29 C4D         41.2530    68.5950    95.4990 C.3          1 NAP401   0.0000
    30 O4D         42.4040    68.0790    96.1860 O.3          1 NAP401   0.0000
    31 C3D         41.2050    70.0540    95.9460 C.3          1 NAP401   0.0000
    32 O3D         39.8990    70.5980    95.7360 O.3          1 NAP401   0.0000
    33 C2D         41.4590    69.8770    97.4420 C.3          1 NAP401   0.0000
    34 O2D         40.2600    69.5230    98.1350 O.3          1 NAP401   0.0000
    35 C1D         42.4560    68.7150    97.4760 C.3          1 NAP401   0.0000
    36 N1N         43.8580    69.1460    97.6880 N.ar         1 NAP401   1.0000
    37 C2N         44.5230    68.7410    98.8530 C.ar         1 NAP401   0.0000
    38 C3N         45.8520    69.1020    99.0540 C.ar         1 NAP401   0.0000
    39 C7N         46.5760    68.6750   100.3330 C.2          1 NAP401   0.0000
    40 O7N         47.4520    69.3800   100.8300 O.2          1 NAP401   0.0000
    41 N7N         46.1570    67.5280   100.8620 N.am         1 NAP401   0.0000
    42 C4N         46.5110    69.8660    98.0950 C.ar         1 NAP401   0.0000
    43 C5N         45.8580    70.2720    96.9340 C.ar         1 NAP401   0.0000
    44 C6N         44.5300    69.9130    96.7260 C.ar         1 NAP401   0.0000
    45 P2B         35.7880    67.7350    86.6620 P.3          1 NAP401   0.0000
    46 O1X         36.5790    67.6030    85.2690 O.co2        1 NAP401   0.0000
    47 O2X         35.6860    69.1880    87.3510 O.co2        1 NAP401  -1.0000
    48 O3X         34.3890    67.5130    86.2350 O.co2        1 NAP401  -1.0000
    49 H5B1        38.5271    68.3807    90.8229 H            1 NAP401   0.0000
    50 H5B2        39.4812    67.4714    91.7871 H            1 NAP401   0.0000
    51 H4B         39.4954    65.7519    90.0751 H            1 NAP401   0.0000
    52 H3B         38.5990    67.6210    88.3977 H            1 NAP401   0.0000
    53 H5          37.8140    65.6371    87.1291 H            1 NAP401   0.0000
    54 H2B         36.4550    67.7142    89.4028 H            1 NAP401   0.0000
    55 H1B         36.7488    64.8064    89.4369 H            1 NAP401   0.0000
    56 H8A         34.9733    67.5769    91.2188 H            1 NAP401   0.0000
    57 H6A1        30.5879    63.5587    92.4824 H            1 NAP401   0.0000
    58 H6A2        31.0973    65.2117    92.5724 H            1 NAP401   0.0000
    59 H2A         33.8834    61.3972    90.3823 H            1 NAP401   0.0000
    60 H5D1        41.6406    67.5382    93.7425 H            1 NAP401   0.0000
    61 H5D2        40.5975    68.7760    93.5267 H            1 NAP401   0.0000
    62 H4D         40.4262    68.1120    95.7872 H            1 NAP401   0.0000
    63 H3D         41.9155    70.6043    95.5074 H            1 NAP401   0.0000
    64 H16         39.9585    71.3757    95.1102 H            1 NAP401   0.0000
    65 H2D         41.8640    70.7034    97.8332 H            1 NAP401   0.0000
    66 H18         39.9051    68.6627    97.7690 H            1 NAP401   0.0000
    67 H1D         42.1913    68.0625    98.1861 H            1 NAP401   0.0000
    68 H2N         44.0435    68.1935    99.5388 H            1 NAP401   0.0000
    69 H7N1        46.5794    67.1795   101.6987 H            1 NAP401   0.0000
    70 H7N2        45.4197    67.0146   100.4228 H            1 NAP401   0.0000
    71 H4N         47.4653    70.1266    98.2416 H            1 NAP401   0.0000
    72 H5N         46.3421    70.8199    96.2518 H            1 NAP401   0.0000
    73 H6N         44.0567    70.2010    95.8935 H            1 NAP401   0.0000
@<TRIPOS>BOND
     1    1    2      ar
     2    1    3      ar
     3    1    4       1
     4    1   23       1
     5    4    5       1
     6    5    6       1
     7    6    7       1
     8    6    8       1
     9    7   12       1
    10    8    9       1
    11    8   10       1
    12   10   11       1
    13   10   12       1
    14   11   45       1
    15   12   13       1
    16   13   14       1
    17   13   22       1
    18   14   15       2
    19   15   16       1
    20   16   17      ar
    21   16   22      ar
    22   17   18       1
    23   17   19      ar
    24   19   20      ar
    25   20   21      ar
    26   21   22      ar
    27   23   24       1
    28   24   25      ar
    29   24   26      ar
    30   24   27       1
    31   27   28       1
    32   28   29       1
    33   29   30       1
    34   29   31       1
    35   30   35       1
    36   31   32       1
    37   31   33       1
    38   33   34       1
    39   33   35       1
    40   35   36       1
    41   36   37      ar
    42   36   44      ar
    43   37   38      ar
    44   38   39       1
    45   38   42      ar
    46   39   40       2
    47   39   41      am
    48   42   43      ar
    49   43   44      ar
    50   45   46      ar
    51   45   47      ar
    52   45   48      ar
    53   43   72       1
    54    5   49       1
    55    5   50       1
    56    6   51       1
    57    8   52       1
    58    9   53       1
    59   10   54       1
    60   12   55       1
    61   14   56       1
    62   18   57       1
    63   18   58       1
    64   20   59       1
    65   44   73       1
    66   28   60       1
    67   28   61       1
    68   29   62       1
    69   31   63       1
    70   32   64       1
    71   33   65       1
    72   34   66       1
    73   35   67       1
    74   37   68       1
    75   41   69       1
    76   41   70       1
    77   42   71       1
@<TRIPOS>SUBSTRUCTURE
     1 NAP401      1 GROUP             4 A     NAP     0 **** NAP A 401
