@<TRIPOS>MOLECULE
./coach420/2ate/ligand.pdb
 22 23 0 0 0
SMALL
GASTEIGER

@<TRIPOS>ATOM
      1  O8        16.2770  -12.9410   -9.1810 O.2   400  NIA400     -0.2224
      2  P         15.6010  -11.6670   -9.5890 P.3   400  NIA400      0.5327
      3  O6        14.5900  -11.1600   -8.6160 O.3   400  NIA400     -0.1145
      4  O7        16.5360  -10.5850  -10.0750 O.3   400  NIA400     -0.1145
      5  O5'       14.7810  -12.1400  -10.9050 O.3   400  NIA400     -0.2675
      6  C5'       14.0440  -11.1490  -11.5930 C.3   400  NIA400      0.1859
      7  C4'       13.3480  -11.7800  -12.7670 C.3   400  NIA400      0.1803
      8  C3'       12.5380  -13.0770  -12.5060 C.3   400  NIA400      0.2161
      9  O3'       11.1500  -12.8610  -12.8190 O.3   400  NIA400     -0.2175
     10  C2'       13.2140  -14.0920  -13.4400 C.3   400  NIA400      0.2337
     11  O2'       12.3060  -15.0670  -14.0600 O.3   400  NIA400     -0.2155
     12  O4'       14.4050  -12.0710  -13.7150 O.3   400  NIA400     -0.3306
     13  C1'       13.9730  -13.1750  -14.4620 C.3   400  NIA400      0.2408
     14  N1        14.8740  -14.0730  -15.1540 N.ar  400  NIA400     -0.2689
     15  C5        14.7770  -14.2880  -16.4840 C.ar  400  NIA400      0.1952
     16  N6        13.9150  -13.6410  -17.3160 N.pl3 400  NIA400     -0.1054
     17  C4        15.5890  -15.3600  -16.7720 C.ar  400  NIA400      0.2589
     18  N7        15.7740  -15.9710  -17.9580 N.pl3 400  NIA400      0.0788
     19  O72       14.9890  -15.7490  -18.9130 O.2   400  NIA400     -0.1245
     20  O71       16.4850  -17.0040  -17.9670 O.2   400  NIA400     -0.1245
     21  N3        16.2440  -15.7410  -15.6520 N.ar  400  NIA400     -0.1995
     22  C2        15.7600  -14.9580  -14.6630 C.ar  400  NIA400      0.1831
@<TRIPOS>BOND
     1     1     2    2
     2     2     5    1
     3     2     4    1
     4     2     3    1
     5     5     6    1
     6     6     7    1
     7     7    12    1
     8     7     8    1
     9     8    10    1
    10     8     9    1
    11    10    13    1
    12    10    11    1
    13    12    13    1
    14    13    14    1
    15    14    15   ar
    16    14    22   ar
    17    15    16    1
    18    15    17   ar
    19    17    18    1
    20    17    21   ar
    21    18    19    2
    22    18    20    2
    23    21    22   ar
