@<TRIPOS>MOLECULE
4o59_NAD_3_ligand
   70    74     1     0     0
SMALL
NO_CHARGES


@<TRIPOS>ATOM
     1 PA           0.0840    -9.1900   -10.0060 P.3          1 NAD401   0.0000
     2 O1A          0.7820    -7.9090   -10.0570 O.co2        1 NAD401   0.0000
     3 O2A         -0.2220    -9.8720    -8.6920 O.co2        1 NAD401  -1.0000
     4 O5B          0.9180   -10.3380   -10.8290 O.3          1 NAD401   0.0000
     5 C5B          1.5690    -9.9290   -12.0030 C.3          1 NAD401   0.0000
     6 C4B          2.7320   -10.8870   -12.0210 C.3          1 NAD401   0.0000
     7 O4B          3.4100   -10.8080   -13.3140 O.3          1 NAD401   0.0000
     8 C3B          3.8070   -10.6160   -10.9340 C.3          1 NAD401   0.0000
     9 O3B          4.2030   -11.7520   -10.1250 O.3          1 NAD401   0.0000
    10 C2B          5.0300   -10.1180   -11.7190 C.3          1 NAD401   0.0000
    11 O2B          6.3450   -10.3820   -11.1720 O.3          1 NAD401   0.0000
    12 C1B          4.8280   -10.8770   -13.0210 C.3          1 NAD401   0.0000
    13 N9A          5.5530   -10.2600   -14.1580 N.pl3        1 NAD401   0.0000
    14 C8A          5.7190    -8.9410   -14.4260 C.2          1 NAD401   0.0000
    15 N7A          6.4040    -8.7850   -15.6080 N.2          1 NAD401   0.0000
    16 C5A          6.6040   -10.0340   -16.1410 C.ar         1 NAD401   0.0000
    17 C6A          7.2310   -10.6540   -17.3120 C.ar         1 NAD401   0.0000
    18 N6A          7.8320    -9.8740   -18.2250 N.pl3        1 NAD401   0.0000
    19 N1A          7.1590   -12.0070   -17.4280 N.ar         1 NAD401   0.0000
    20 C2A          6.5820   -12.8580   -16.5450 C.ar         1 NAD401   0.0000
    21 N3A          6.0450   -12.3320   -15.4070 N.ar         1 NAD401   0.0000
    22 C4A          6.0350   -11.0120   -15.1940 C.ar         1 NAD401   0.0000
    23 O3          -1.2530    -8.9010   -10.8260 O.3          1 NAD401   0.0000
    24 PN          -2.5980    -9.8040   -10.8520 P.3          1 NAD401   0.0000
    25 O1N         -3.5950    -9.1230    -9.9360 O.co2        1 NAD401   0.0000
    26 O2N         -2.3500   -11.2460   -10.6460 O.co2        1 NAD401  -1.0000
    27 O5D         -3.1350    -9.4070   -12.2670 O.3          1 NAD401   0.0000
    28 C5D         -2.5600   -10.1180   -13.3860 C.3          1 NAD401   0.0000
    29 C4D         -3.4670    -9.9530   -14.5890 C.3          1 NAD401   0.0000
    30 O4D         -4.7620   -10.5880   -14.3740 O.3          1 NAD401   0.0000
    31 C3D         -3.6980    -8.5230   -14.9870 C.3          1 NAD401   0.0000
    32 O3D         -3.9670    -8.4880   -16.4280 O.3          1 NAD401   0.0000
    33 C2D         -5.0510    -8.2290   -14.3110 C.3          1 NAD401   0.0000
    34 O2D         -5.7640    -7.1400   -14.8460 O.3          1 NAD401   0.0000
    35 C1D         -5.7750    -9.5590   -14.4570 C.3          1 NAD401   0.0000
    36 N1N         -6.8330    -9.7750   -13.4590 N.ar         1 NAD401   1.0000
    37 C2N         -6.5980    -9.5120   -12.0930 C.ar         1 NAD401   0.0000
    38 C3N         -7.6880    -9.7710   -11.2070 C.ar         1 NAD401   0.0000
    39 C7N         -7.6140    -9.4700    -9.7360 C.2          1 NAD401   0.0000
    40 O7N         -8.5870    -9.2520    -9.0700 O.2          1 NAD401   0.0000
    41 N7N         -6.4390    -9.4030    -9.1520 N.am         1 NAD401   0.0000
    42 C4N         -8.9110   -10.3260   -11.6850 C.ar         1 NAD401   0.0000
    43 C5N         -9.0290   -10.6680   -13.0330 C.ar         1 NAD401   0.0000
    44 C6N         -7.9560   -10.4310   -13.8790 C.ar         1 NAD401   0.0000
    45 H5B1         1.8745    -8.9787   -11.9437 H            1 NAD401   0.0000
    46 H5B2         0.9854   -10.0419   -12.8071 H            1 NAD401   0.0000
    47 H4B          2.3824   -11.8160   -11.8999 H            1 NAD401   0.0000
    48 H3B          3.4855    -9.8843   -10.3330 H            1 NAD401   0.0000
    49 H5           4.9734   -12.2184   -10.5597 H            1 NAD401   0.0000
    50 H2B          4.9349    -9.1374   -11.8906 H            1 NAD401   0.0000
    51 H7           6.6789   -11.2597   -11.5157 H            1 NAD401   0.0000
    52 H1B          5.1099   -11.8300   -12.9104 H            1 NAD401   0.0000
    53 H8A          5.3916    -8.1925   -13.8493 H            1 NAD401   0.0000
    54 H6A1         8.2632   -10.2854   -19.0280 H            1 NAD401   0.0000
    55 H6A2         7.8484    -8.8817   -18.1019 H            1 NAD401   0.0000
    56 H2A          6.5509   -13.8416   -16.7225 H            1 NAD401   0.0000
    57 H5D1        -2.4753   -11.0884   -13.1597 H            1 NAD401   0.0000
    58 H5D2        -1.6560    -9.7439   -13.5930 H            1 NAD401   0.0000
    59 H4D         -3.0299   -10.4139   -15.3614 H            1 NAD401   0.0000
    60 H3D         -2.9655    -7.9049   -14.7016 H            1 NAD401   0.0000
    61 H17         -3.4842    -9.2407   -16.8756 H            1 NAD401   0.0000
    62 H2D         -4.8910    -8.0584   -13.3387 H            1 NAD401   0.0000
    63 H19         -6.6498    -7.4561   -15.1858 H            1 NAD401   0.0000
    64 H1D         -6.1877    -9.5953   -15.3671 H            1 NAD401   0.0000
    65 H2N         -5.7198    -9.1646   -11.7643 H            1 NAD401   0.0000
    66 H7N1        -6.3774    -9.2035    -8.1741 H            1 NAD401   0.0000
    67 H7N2        -5.6063    -9.5515    -9.6854 H            1 NAD401   0.0000
    68 H4N         -9.6781   -10.4691   -11.0596 H            1 NAD401   0.0000
    69 H5N         -9.8721   -11.0766   -13.3825 H            1 NAD401   0.0000
    70 H6N         -8.0055   -10.7499   -14.8255 H            1 NAD401   0.0000
@<TRIPOS>BOND
     1    1    2      ar
     2    1    3      ar
     3    1    4       1
     4    1   23       1
     5    4    5       1
     6    5    6       1
     7    6    7       1
     8    6    8       1
     9    7   12       1
    10    8    9       1
    11    8   10       1
    12   10   11       1
    13   10   12       1
    14   12   13       1
    15   13   14       1
    16   13   22       1
    17   14   15       2
    18   15   16       1
    19   16   17      ar
    20   16   22      ar
    21   17   18       1
    22   17   19      ar
    23   19   20      ar
    24   20   21      ar
    25   21   22      ar
    26   23   24       1
    27   24   25      ar
    28   24   26      ar
    29   24   27       1
    30   27   28       1
    31   28   29       1
    32   29   30       1
    33   29   31       1
    34   30   35       1
    35   31   32       1
    36   31   33       1
    37   33   34       1
    38   33   35       1
    39   35   36       1
    40   36   37      ar
    41   36   44      ar
    42   37   38      ar
    43   38   39       1
    44   38   42      ar
    45   39   40       2
    46   39   41      am
    47   42   43      ar
    48   43   44      ar
    49   44   70       1
    50    5   45       1
    51    5   46       1
    52    6   47       1
    53    8   48       1
    54    9   49       1
    55   10   50       1
    56   11   51       1
    57   12   52       1
    58   14   53       1
    59   18   54       1
    60   18   55       1
    61   20   56       1
    62   43   69       1
    63   28   57       1
    64   28   58       1
    65   29   59       1
    66   31   60       1
    67   32   61       1
    68   33   62       1
    69   34   63       1
    70   35   64       1
    71   37   65       1
    72   41   66       1
    73   41   67       1
    74   42   68       1
@<TRIPOS>SUBSTRUCTURE
     1 NAD401      1 GROUP             4 Q     NAD     0 **** NAD Q 401
