@<TRIPOS>MOLECULE
1e3l_NAD_1_ligand
   70    74     1     0     0
SMALL
NO_CHARGES


@<TRIPOS>ATOM
     1 PA          96.9070    28.7870    24.8120 P.3          1 NAD377   0.0000
     2 O1A         96.8400    27.3550    24.5860 O.co2        1 NAD377   0.0000
     3 O2A         97.9960    29.4490    24.0400 O.co2        1 NAD377  -1.0000
     4 O5B         97.0980    29.1220    26.3730 O.3          1 NAD377   0.0000
     5 C5B         97.1870    28.1960    27.4870 C.3          1 NAD377   0.0000
     6 C4B         98.0950    28.7600    28.5570 C.3          1 NAD377   0.0000
     7 O4B         97.5680    28.3520    29.8690 O.3          1 NAD377   0.0000
     8 C3B         99.5600    28.2720    28.5340 C.3          1 NAD377   0.0000
     9 O3B        100.5030    29.2890    28.7780 O.3          1 NAD377   0.0000
    10 C2B         99.5810    27.1780    29.5730 C.3          1 NAD377   0.0000
    11 O2B        100.8500    26.8540    30.1300 O.3          1 NAD377   0.0000
    12 C1B         98.5850    27.7110    30.6100 C.3          1 NAD377   0.0000
    13 N9A         98.0890    26.6480    31.4950 N.pl3        1 NAD377   0.0000
    14 C8A         97.6140    25.3820    31.2220 C.2          1 NAD377   0.0000
    15 N7A         97.2660    24.6980    32.3340 N.2          1 NAD377   0.0000
    16 C5A         97.5310    25.5740    33.3610 C.ar         1 NAD377   0.0000
    17 C6A         97.3910    25.4640    34.7710 C.ar         1 NAD377   0.0000
    18 N6A         96.9320    24.3720    35.3870 N.pl3        1 NAD377   0.0000
    19 N1A         97.7540    26.5490    35.5370 N.ar         1 NAD377   0.0000
    20 C2A         98.2350    27.6950    34.9180 C.ar         1 NAD377   0.0000
    21 N3A         98.4000    27.8810    33.6280 N.ar         1 NAD377   0.0000
    22 C4A         98.0330    26.7840    32.8790 C.ar         1 NAD377   0.0000
    23 O3          95.5140    29.5500    24.5740 O.3          1 NAD377   0.0000
    24 PN          95.0770    31.0610    24.3250 P.3          1 NAD377   0.0000
    25 O1N         95.0270    31.3670    22.8870 O.co2        1 NAD377   0.0000
    26 O2N         95.9880    31.9990    24.9990 O.co2        1 NAD377  -1.0000
    27 O5D         93.5570    31.0360    24.9050 O.3          1 NAD377   0.0000
    28 C5D         93.2540    30.7730    26.2750 C.3          1 NAD377   0.0000
    29 C4D         91.8840    30.2000    26.5070 C.3          1 NAD377   0.0000
    30 O4D         90.7940    31.1500    26.2050 O.3          1 NAD377   0.0000
    31 C3D         91.5460    28.9350    25.6780 C.3          1 NAD377   0.0000
    32 O3D         90.9060    27.9750    26.5330 O.3          1 NAD377   0.0000
    33 C2D         90.6970    29.5310    24.5370 C.3          1 NAD377   0.0000
    34 O2D         89.9680    28.5660    23.7920 O.3          1 NAD377   0.0000
    35 C1D         89.8570    30.5580    25.2900 C.3          1 NAD377   0.0000
    36 N1N         89.2000    31.6620    24.5390 N.ar         1 NAD377   1.0000
    37 C2N         88.0280    32.1390    25.0930 C.ar         1 NAD377   0.0000
    38 C3N         87.3140    33.1790    24.4910 C.ar         1 NAD377   0.0000
    39 C7N         85.9740    33.7870    25.0530 C.2          1 NAD377   0.0000
    40 O7N         85.2350    34.5000    24.3680 O.2          1 NAD377   0.0000
    41 N7N         85.6820    33.4720    26.3370 N.am         1 NAD377   0.0000
    42 C4N         87.7650    33.8050    23.2600 C.ar         1 NAD377   0.0000
    43 C5N         88.9770    33.2600    22.7530 C.ar         1 NAD377   0.0000
    44 C6N         89.7340    32.2240    23.3080 C.ar         1 NAD377   0.0000
    45 H5B1        97.5566    27.3246    27.1646 H            1 NAD377   0.0000
    46 H5B2        96.2748    28.0499    27.8699 H            1 NAD377   0.0000
    47 H4B         98.0843    29.7583    28.4989 H            1 NAD377   0.0000
    48 H3B         99.7491    27.8677    27.6391 H            1 NAD377   0.0000
    49 H5         100.6809    29.3500    29.7602 H            1 NAD377   0.0000
    50 H2B         99.1965    26.3500    29.1649 H            1 NAD377   0.0000
    51 H7         101.0134    27.4194    30.9384 H            1 NAD377   0.0000
    52 H1B         99.0487    28.3976    31.1699 H            1 NAD377   0.0000
    53 H8A         97.5354    25.0093    30.2974 H            1 NAD377   0.0000
    54 H6A1        96.8562    24.3549    36.3840 H            1 NAD377   0.0000
    55 H6A2        96.6641    23.5712    34.8514 H            1 NAD377   0.0000
    56 H2A         98.4813    28.4577    35.5160 H            1 NAD377   0.0000
    57 H5D1        93.3239    31.6323    26.7817 H            1 NAD377   0.0000
    58 H5D2        93.9286    30.1234    26.6257 H            1 NAD377   0.0000
    59 H4D         91.8160    29.9567    27.4746 H            1 NAD377   0.0000
    60 H3D         92.3865    28.5440    25.3030 H            1 NAD377   0.0000
    61 H17         90.6842    27.1547    26.0058 H            1 NAD377   0.0000
    62 H2D         91.3062    30.0186    23.9116 H            1 NAD377   0.0000
    63 H19         89.4446    29.0250    23.0741 H            1 NAD377   0.0000
    64 H1D         89.1597    30.0732    25.8179 H            1 NAD377   0.0000
    65 H2N         87.6842    31.7331    25.9398 H            1 NAD377   0.0000
    66 H7N1        84.8467    33.8228    26.7604 H            1 NAD377   0.0000
    67 H7N2        86.3016    32.8885    26.8620 H            1 NAD377   0.0000
    68 H4N         87.2699    34.5490    22.8114 H            1 NAD377   0.0000
    69 H5N         89.3260    33.6621    21.9065 H            1 NAD377   0.0000
    70 H6N         90.5801    31.8936    22.8897 H            1 NAD377   0.0000
@<TRIPOS>BOND
     1    1    2      ar
     2    1    3      ar
     3    1    4       1
     4    1   23       1
     5    4    5       1
     6    5    6       1
     7    6    7       1
     8    6    8       1
     9    7   12       1
    10    8    9       1
    11    8   10       1
    12   10   11       1
    13   10   12       1
    14   12   13       1
    15   13   14       1
    16   13   22       1
    17   14   15       2
    18   15   16       1
    19   16   17      ar
    20   16   22      ar
    21   17   18       1
    22   17   19      ar
    23   19   20      ar
    24   20   21      ar
    25   21   22      ar
    26   23   24       1
    27   24   25      ar
    28   24   26      ar
    29   24   27       1
    30   27   28       1
    31   28   29       1
    32   29   30       1
    33   29   31       1
    34   30   35       1
    35   31   32       1
    36   31   33       1
    37   33   34       1
    38   33   35       1
    39   35   36       1
    40   36   37      ar
    41   36   44      ar
    42   37   38      ar
    43   38   39       1
    44   38   42      ar
    45   39   40       2
    46   39   41      am
    47   42   43      ar
    48   43   44      ar
    49   44   70       1
    50    5   45       1
    51    5   46       1
    52    6   47       1
    53    8   48       1
    54    9   49       1
    55   10   50       1
    56   11   51       1
    57   12   52       1
    58   14   53       1
    59   18   54       1
    60   18   55       1
    61   20   56       1
    62   43   69       1
    63   28   57       1
    64   28   58       1
    65   29   59       1
    66   31   60       1
    67   32   61       1
    68   33   62       1
    69   34   63       1
    70   35   64       1
    71   37   65       1
    72   41   66       1
    73   41   67       1
    74   42   68       1
@<TRIPOS>SUBSTRUCTURE
     1 NAD377      1 GROUP             4 A     NAD     0 **** NAD A 377
