@<TRIPOS>MOLECULE
3q0g_COA_2_ligand
   80    82     1     0     0
SMALL
NO_CHARGES


@<TRIPOS>ATOM
     1 N1A         23.4630    12.4990   -89.2600 N.ar         1 COA258   0.0000
     2 C2A         23.8120    13.0200   -90.4050 C.ar         1 COA258   0.0000
     3 N3A         24.9770    12.7600   -90.8490 N.ar         1 COA258   0.0000
     4 C4A         25.8590    12.0110   -90.1840 C.ar         1 COA258   0.0000
     5 C5A         25.5420    11.4920   -88.9920 C.ar         1 COA258   0.0000
     6 C6A         24.2690    11.7560   -88.5430 C.ar         1 COA258   0.0000
     7 N6A         23.8590    11.2580   -87.4480 N.pl3        1 COA258   0.0000
     8 N7A         26.5790    10.8330   -88.5640 N.2          1 COA258   0.0000
     9 C8A         27.5170    10.9370   -89.4290 C.2          1 COA258   0.0000
    10 N9A         27.0890    11.6670   -90.4140 N.pl3        1 COA258   0.0000
    11 C1B         27.8020    12.0910   -91.6320 C.3          1 COA258   0.0000
    12 C2B         28.5130    13.4470   -91.3350 C.3          1 COA258   0.0000
    13 O2B         27.7720    14.6530   -91.4160 O.3          1 COA258   0.0000
    14 C3B         29.5570    13.4360   -92.3850 C.3          1 COA258   0.0000
    15 O3B         28.9990    13.8600   -93.4750 O.3          1 COA258   0.0000
    16 P3B         29.4150    14.8910   -94.3740 P.3          1 COA258   0.0000
    17 O7A         30.5540    14.1650   -94.9120 O.co2        1 COA258   0.0000
    18 O8A         28.5550    14.7800   -95.5780 O.co2        1 COA258  -1.0000
    19 O9A         29.5120    16.1010   -93.7170 O.co2        1 COA258  -1.0000
    20 C4B         29.8710    12.0410   -92.0410 C.3          1 COA258   0.0000
    21 O4B         28.8490    11.2260   -92.1310 O.3          1 COA258   0.0000
    22 C5B         30.4060    11.1660   -91.0320 C.3          1 COA258   0.0000
    23 O5B         31.4760    10.8860   -90.4030 O.3          1 COA258   0.0000
    24 P1A         32.1530    11.7710   -89.8330 P.3          1 COA258   0.0000
    25 O1A         32.7910    12.2350   -90.9430 O.co2        1 COA258   0.0000
    26 O2A         31.5790    12.7090   -88.9920 O.co2        1 COA258  -1.0000
    27 O3A         32.9430    10.6100   -89.1850 O.3          1 COA258   0.0000
    28 P2A         33.5190    10.3050   -87.8470 P.3          1 COA258   0.0000
    29 O4A         34.2580    11.4390   -87.4440 O.co2        1 COA258   0.0000
    30 O5A         34.2130     9.0990   -87.9050 O.co2        1 COA258  -1.0000
    31 O6A         32.2770    10.1430   -86.9400 O.3          1 COA258   0.0000
    32 CBP         30.8880     9.5980   -85.0190 C.3          1 COA258   0.0000
    33 CCP         32.0540     9.2120   -85.9330 C.3          1 COA258   0.0000
    34 CDP         31.4950     9.8570   -83.7050 C.3          1 COA258   0.0000
    35 CEP         29.9460     8.4570   -84.8370 C.3          1 COA258   0.0000
    36 CAP         30.2590    10.9070   -85.5420 C.3          1 COA258   0.0000
    37 OAP         29.9730    10.9680   -86.9180 O.3          1 COA258   0.0000
    38 C9P         29.1180    11.3950   -84.7190 C.2          1 COA258   0.0000
    39 O9P         29.2750    11.2500   -83.5490 O.2          1 COA258   0.0000
    40 N8P         27.9990    11.7580   -85.3050 N.am         1 COA258   0.0000
    41 C7P         26.7980    12.1880   -84.5830 C.3          1 COA258   0.0000
    42 C6P         26.3250    11.2370   -83.4630 C.3          1 COA258   0.0000
    43 C5P         25.1610    11.7370   -82.6550 C.2          1 COA258   0.0000
    44 O5P         25.2570    12.7660   -82.0590 O.2          1 COA258   0.0000
    45 N4P         24.1530    10.9100   -82.6390 N.am         1 COA258   0.0000
    46 C3P         22.8130    10.9940   -82.0170 C.3          1 COA258   0.0000
    47 C2P         22.4540    12.1180   -81.1080 C.3          1 COA258   0.0000
    48 S1P         21.2960    13.3640   -81.7380 S.3          1 COA258   0.0000
    49 H2A         23.1839    13.6053   -90.9177 H            1 COA258   0.0000
    50 H6A1        24.4705    10.6901   -86.8970 H            1 COA258   0.0000
    51 H6A2        22.9249    11.4340   -87.1374 H            1 COA258   0.0000
    52 H8A         28.4257    10.5256   -89.3581 H            1 COA258   0.0000
    53 H1B         27.1321    12.2345   -92.3605 H            1 COA258   0.0000
    54 H2B         28.9525    13.3946   -90.4383 H            1 COA258   0.0000
    55 H7          27.0142    14.6231   -90.7642 H            1 COA258   0.0000
    56 H3B         30.3145    14.0357   -92.1272 H            1 COA258   0.0000
    57 H4B         30.4073    11.7637   -92.8382 H            1 COA258   0.0000
    58 H5B1        30.1810    10.2732   -91.4223 H            1 COA258   0.0000
    59 H5B2        29.7886    11.3619   -90.2701 H            1 COA258   0.0000
    60 HCP1        32.8829     9.1353   -85.3790 H            1 COA258   0.0000
    61 HCP2        31.8514     8.3278   -86.3539 H            1 COA258   0.0000
    62 HDP1        30.7819    10.1168   -83.0538 H            1 COA258   0.0000
    63 HDP2        31.9562     9.0305   -83.3822 H            1 COA258   0.0000
    64 HDP3        32.1596    10.5998   -83.7854 H            1 COA258   0.0000
    65 HEP1        29.1961     8.7363   -84.2373 H            1 COA258   0.0000
    66 HEP2        29.5780     8.1836   -85.7257 H            1 COA258   0.0000
    67 HEP3        30.4320     7.6858   -84.4259 H            1 COA258   0.0000
    68 HAP         30.9724    11.5947   -85.4074 H            1 COA258   0.0000
    69 H21         30.4839    11.7217   -87.3315 H            1 COA258   0.0000
    70 H8P         27.9648    11.7397   -86.3042 H            1 COA258   0.0000
    71 H7P1        26.0548    12.2781   -85.2460 H            1 COA258   0.0000
    72 H7P2        26.9876    13.0795   -84.1716 H            1 COA258   0.0000
    73 H6P1        27.0925    11.0852   -82.8402 H            1 COA258   0.0000
    74 H6P2        26.0606    10.3693   -83.8839 H            1 COA258   0.0000
    75 H4P         24.3159    10.0605   -83.1407 H            1 COA258   0.0000
    76 H3P1        22.6920    10.1531   -81.4896 H            1 COA258   0.0000
    77 H3P2        22.1527    11.0145   -82.7677 H            1 COA258   0.0000
    78 H2P1        23.3014    12.5909   -80.8667 H            1 COA258   0.0000
    79 H2P2        22.0482    11.7203   -80.2851 H            1 COA258   0.0000
    80 H1P         20.6729    12.9384   -82.3942 H            1 COA258   0.0000
@<TRIPOS>BOND
     1    1    2      ar
     2    1    6      ar
     3    2    3      ar
     4    3    4      ar
     5    4    5      ar
     6    4   10       1
     7    5    6      ar
     8    5    8       1
     9    6    7       1
    10    8    9       2
    11    9   10       1
    12   10   11       1
    13   11   12       1
    14   11   21       1
    15   12   13       1
    16   12   14       1
    17   14   15       1
    18   14   20       1
    19   15   16       1
    20   16   17      ar
    21   16   18      ar
    22   16   19      ar
    23   20   21       1
    24   20   22       1
    25   22   23       1
    26   47   48       1
    27   23   24       1
    28   24   25      ar
    29   24   26      ar
    30   24   27       1
    31   27   28       1
    32   28   29      ar
    33   28   30      ar
    34   28   31       1
    35   31   33       1
    36   32   33       1
    37   32   34       1
    38   32   35       1
    39   32   36       1
    40   36   37       1
    41   36   38       1
    42   38   39       2
    43   38   40      am
    44   40   41       1
    45   41   42       1
    46   42   43       1
    47   43   44       2
    48   43   45      am
    49   45   46       1
    50   46   47       1
    51    2   49       1
    52    7   50       1
    53    7   51       1
    54    9   52       1
    55   11   53       1
    56   12   54       1
    57   13   55       1
    58   14   56       1
    59   48   80       1
    60   47   79       1
    61   20   57       1
    62   22   58       1
    63   22   59       1
    64   47   78       1
    65   46   77       1
    66   33   60       1
    67   33   61       1
    68   34   62       1
    69   34   63       1
    70   34   64       1
    71   35   65       1
    72   35   66       1
    73   35   67       1
    74   36   68       1
    75   37   69       1
    76   40   70       1
    77   41   71       1
    78   41   72       1
    79   42   73       1
    80   42   74       1
    81   45   75       1
    82   46   76       1
@<TRIPOS>SUBSTRUCTURE
     1 COA258      1 GROUP             4 C     COA     0 **** COA C 258
