@<TRIPOS>MOLECULE
4iix_1EG_1_ligand
   54    56     1     0     0
SMALL
NO_CHARGES


@<TRIPOS>ATOM
     1 O6          -1.2470     8.1370    29.7870 O.2          1 1EG401   0.0000
     2 C6          -0.4520     7.7910    28.8850 C.2          1 1EG401   0.0000
     3 N1           0.4090     8.6560    28.3330 N.2          1 1EG401   0.0000
     4 C2           1.2710     8.3090    27.3560 C.2          1 1EG401   0.0000
     5 N2           2.1040     9.2520    26.8660 N.pl3        1 1EG401   0.0000
     6 N3           1.3490     7.0560    26.8450 N.pl3        1 1EG401   0.0000
     7 C5          -0.4390     6.4040    28.3800 C.2          1 1EG401   0.0000
     8 C4           0.5300     6.0970    27.3190 C.2          1 1EG401   0.0000
     9 N7          -1.1100     5.2690    28.6460 N.2          1 1EG401   0.0000
    10 C8          -0.6190     4.3160    27.8190 C.2          1 1EG401   0.0000
    11 N9           0.3620     4.8190    27.0460 N.pl3        1 1EG401   0.0000
    12 C1'          1.1030     4.0700    26.0260 C.3          1 1EG401   0.0000
    13 O4'          0.2730     2.9690    25.6800 O.3          1 1EG401   0.0000
    14 C2'          2.4150     3.5490    26.5720 C.3          1 1EG401   0.0000
    15 O2'          3.4540     3.8400    25.6380 O.3          1 1EG401   0.0000
    16 C3'          2.2440     2.0540    26.5810 C.3          1 1EG401   0.0000
    17 O3'          3.4030     1.5210    25.9410 O.3          1 1EG401   0.0000
    18 C4'          1.0440     1.7780    25.6930 C.3          1 1EG401   0.0000
    19 C5'          0.1730     0.6150    26.1530 C.3          1 1EG401   0.0000
    20 O5'         -0.3340     0.8270    27.4720 O.3          1 1EG401   0.0000
    21 SBG         -0.8480    -0.4100    28.2210 S.o2         1 1EG401   0.0000
    22 OAF         -1.4680    -1.2310    27.2050 O.2          1 1EG401   0.0000
    23 OAG         -1.7500     0.0250    29.2550 O.2          1 1EG401   0.0000
    24 NAQ          0.4200    -1.0840    28.7930 N.am         1 1EG401   0.0000
    25 C            0.4880    -2.2660    29.4360 C.2          1 1EG401   0.0000
    26 O           -0.4380    -3.0360    29.6560 O.2          1 1EG401   0.0000
    27 CA           1.8600    -2.6830    29.8800 C.3          1 1EG401   0.0000
    28 N            2.7970    -1.5810    29.7380 N.4          1 1EG401   1.0000
    29 CB           1.7960    -3.1850    31.3210 C.3          1 1EG401   0.0000
    30 CG           2.7540    -4.3540    31.5230 C.3          1 1EG401   0.0000
    31 CD           4.1550    -3.8500    31.7860 C.2          1 1EG401   0.0000
    32 OE1          4.4910    -2.7370    31.3310 O.co2        1 1EG401   0.0000
    33 OE2          4.9210    -4.5660    32.4520 O.co2        1 1EG401  -1.0000
    34 H1           2.7522     9.0187    26.1411 H            1 1EG401   0.0000
    35 H2           2.0727    10.1837    27.2280 H            1 1EG401   0.0000
    36 H3          -0.9404     3.3696    27.7868 H            1 1EG401   0.0000
    37 H1'          1.2660     4.6455    25.2246 H            1 1EG401   0.0000
    38 H2'          2.6146     3.9110    27.4826 H            1 1EG401   0.0000
    39 H6           3.0683     4.3171    24.8483 H            1 1EG401   0.0000
    40 H3'          2.1220     1.6925    27.5054 H            1 1EG401   0.0000
    41 H8           4.0051     2.2699    25.6642 H            1 1EG401   0.0000
    42 H4'          1.3659     1.5922    24.7646 H            1 1EG401   0.0000
    43 H5'1         0.7196    -0.2223    26.1462 H            1 1EG401   0.0000
    44 H5'2        -0.5962     0.5161    25.5217 H            1 1EG401   0.0000
    45 HAQ          1.2813    -0.5903    28.6731 H            1 1EG401   0.0000
    46 HA           2.1660    -3.4353    29.2965 H            1 1EG401   0.0000
    47 H14          3.7048    -1.8746    30.0375 H            1 1EG401   0.0000
    48 H15          2.8372    -1.2991    28.7794 H            1 1EG401   0.0000
    49 HB1          0.8638    -3.4848    31.5238 H            1 1EG401   0.0000
    50 HB2          2.0492    -2.4415    31.9399 H            1 1EG401   0.0000
    51 HG1          2.7577    -4.9226    30.7004 H            1 1EG401   0.0000
    52 HG2          2.4483    -4.8991    32.3036 H            1 1EG401   0.0000
    53 H20          2.4936    -0.8111    30.2994 H            1 1EG401   0.0000
    54 H21          2.0081     6.8454    26.1231 H            1 1EG401   0.0000
@<TRIPOS>BOND
     1    1    2       2
     2    2    3       1
     3    2    7       1
     4    3    4       2
     5    4    5       1
     6    4    6       1
     7    6    8       1
     8    7    8       2
     9    7    9       1
    10    8   11       1
    11    9   10       2
    12   10   11       1
    13   11   12       1
    14   12   13       1
    15   12   14       1
    16   13   18       1
    17   14   15       1
    18   14   16       1
    19   16   17       1
    20   16   18       1
    21   18   19       1
    22   19   20       1
    23   20   21       1
    24   21   22       2
    25   21   23       2
    26   21   24       1
    27   24   25      am
    28   25   26       2
    29   25   27       1
    30   27   28       1
    31   27   29       1
    32   29   30       1
    33   30   31       1
    34   31   32      ar
    35   31   33      ar
    36   28   53       1
    37    5   34       1
    38    5   35       1
    39   10   36       1
    40   12   37       1
    41   14   38       1
    42   15   39       1
    43   16   40       1
    44   17   41       1
    45   18   42       1
    46   19   43       1
    47   19   44       1
    48   24   45       1
    49   27   46       1
    50   28   47       1
    51   28   48       1
    52   29   49       1
    53   29   50       1
    54   30   51       1
    55   30   52       1
    56    6   54       1
@<TRIPOS>SUBSTRUCTURE
     1 1EG401      1 GROUP             4 A     1EG     0 **** 1EG A 401
