@<TRIPOS>MOLECULE
3she_I85_1_ligand
   57    61     1     0     0
SMALL
NO_CHARGES


@<TRIPOS>ATOM
     1 N1          11.9760    13.2150    15.5550 N.am         1 I85350   0.0000
     2 N2          18.1610     6.5050    14.0060 N.4          1 I85350   1.0000
     3 C3          18.9230     7.5450    14.7020 C.3          1 I85350   0.0000
     4 C4          12.8840    11.4760    14.0070 C.ar         1 I85350   0.0000
     5 N5          10.6810    12.2860    13.8850 N.ar         1 I85350   0.0000
     6 N6          14.8800     9.4920    12.9890 N.pl3        1 I85350   0.0000
     7 C7          16.9640     8.0700    12.5340 C.3          1 I85350   0.0000
     8 N8          16.6540     6.9750    10.2900 N.am         1 I85350   0.0000
     9 C9          15.3360     7.2660    10.2030 C.2          1 I85350   0.0000
    10 C10         17.8080     9.1730    13.1930 C.3          1 I85350   0.0000
    11 C11         19.1630     8.6670    13.7010 C.3          1 I85350   0.0000
    12 C12         16.8500     6.8420    13.4350 C.3          1 I85350   0.0000
    13 O13         14.6400     6.7460     9.3490 O.2          1 I85350   0.0000
    14 C14         15.5810     8.6180    12.2790 C.2          1 I85350   0.0000
    15 C15         14.8170     8.2440    11.1780 C.2          1 I85350   0.0000
    16 C16         13.6060     8.9380    11.2620 C.2          1 I85350   0.0000
    17 C17         13.6660     9.7070    12.3910 C.2          1 I85350   0.0000
    18 C18         12.6270    10.6210    12.9190 C.ar         1 I85350   0.0000
    19 C19         11.3510    10.6440    12.3470 C.ar         1 I85350   0.0000
    20 C20         10.4080    11.4940    12.8630 C.ar         1 I85350   0.0000
    21 C21         11.8650    12.3150    14.4790 C.ar         1 I85350   0.0000
    22 C22         17.5730     7.6560    11.1990 C.3          1 I85350   0.0000
    23 C23         13.0460    13.3840    16.3760 C.2          1 I85350   0.0000
    24 C24         12.9770    14.3950    17.4700 C.ar         1 I85350   0.0000
    25 C25         12.3680    15.6340    17.2350 C.ar         1 I85350   0.0000
    26 C26         12.3020    16.5850    18.2360 C.ar         1 I85350   0.0000
    27 C27         12.8440    16.3230    19.4830 C.ar         1 I85350   0.0000
    28 C28         13.4600    15.1030    19.7390 C.ar         1 I85350   0.0000
    29 C29         13.5280    14.1420    18.7360 C.ar         1 I85350   0.0000
    30 O30         14.0700    12.7480    16.2310 O.2          1 I85350   0.0000
    31 C31         14.0560    14.8080    21.0990 C.3          1 I85350   0.0000
    32 F32         13.2310    13.9100    21.7800 F            1 I85350   0.0000
    33 F33         15.3190    14.2300    20.9340 F            1 I85350   0.0000
    34 F34         14.1860    15.9650    21.8820 F            1 I85350   0.0000
    35 H1          11.1806    13.7936    15.7354 H            1 I85350   0.0000
    36 H2          18.0134     5.7631    14.6600 H            1 I85350   0.0000
    37 H3          19.7963     7.1760    15.0200 H            1 I85350   0.0000
    38 H4          18.4016     7.8878    15.4834 H            1 I85350   0.0000
    39 H5          13.7856    11.4849    14.4395 H            1 I85350   0.0000
    40 H6          15.1907     9.9283    13.8335 H            1 I85350   0.0000
    41 H7          17.0192     6.2547     9.7002 H            1 I85350   0.0000
    42 H8          17.2965     9.5461    13.9671 H            1 I85350   0.0000
    43 H9          17.9693     9.8955    12.5207 H            1 I85350   0.0000
    44 H10         19.7027     8.3225    12.9329 H            1 I85350   0.0000
    45 H11         19.6558     9.4148    14.1459 H            1 I85350   0.0000
    46 H12         16.2072     7.0352    14.1762 H            1 I85350   0.0000
    47 H13         16.5157     6.0681    12.8971 H            1 I85350   0.0000
    48 H14         12.8420     8.8825    10.6192 H            1 I85350   0.0000
    49 H15         11.1302    10.0496    11.5737 H            1 I85350   0.0000
    50 H16          9.4941    11.5154    12.4576 H            1 I85350   0.0000
    51 H17         18.3396     7.0412    11.3843 H            1 I85350   0.0000
    52 H18         17.9091     8.4795    10.7419 H            1 I85350   0.0000
    53 H19         11.9778    15.8323    16.3359 H            1 I85350   0.0000
    54 H20         11.8614    17.4651    18.0590 H            1 I85350   0.0000
    55 H21         12.7921    17.0148    20.2032 H            1 I85350   0.0000
    56 H22         13.9724    13.2649    18.9179 H            1 I85350   0.0000
    57 H23         18.7325     6.1774    13.2536 H            1 I85350   0.0000
@<TRIPOS>BOND
     1    1   21       1
     2    1   23      am
     3    2    3       1
     4    2   12       1
     5    3   11       1
     6    4   18      ar
     7    4   21      ar
     8    5   20      ar
     9    5   21      ar
    10    6   14       1
    11    6   17       1
    12    7   10       1
    13    7   12       1
    14    7   14       1
    15    7   22       1
    16    8    9      am
    17    8   22       1
    18    9   13       2
    19    9   15       1
    20   10   11       1
    21   14   15       2
    22   15   16       1
    23   16   17       2
    24   17   18       1
    25   18   19      ar
    26   19   20      ar
    27   23   24       1
    28   23   30       2
    29   24   25      ar
    30   24   29      ar
    31   25   26      ar
    32   26   27      ar
    33   27   28      ar
    34   28   29      ar
    35   28   31       1
    36   31   32       1
    37   31   33       1
    38   31   34       1
    39    1   35       1
    40    2   36       1
    41    3   37       1
    42    3   38       1
    43    4   39       1
    44    6   40       1
    45    8   41       1
    46   10   42       1
    47   10   43       1
    48   11   44       1
    49   11   45       1
    50   12   46       1
    51   12   47       1
    52   16   48       1
    53   19   49       1
    54   20   50       1
    55   22   51       1
    56   22   52       1
    57   25   53       1
    58   26   54       1
    59   27   55       1
    60   29   56       1
    61    2   57       1
@<TRIPOS>SUBSTRUCTURE
     1 I85350      1 GROUP             4 A     I85     0 **** I85 A 350
