@<TRIPOS>MOLECULE
3wag_TYD_2_ligand
   38    39     1     0     0
SMALL
NO_CHARGES


@<TRIPOS>ATOM
     1 PA         -19.2800    35.8320     4.8150 P.3          1 TYD500   0.0000
     2 O1A        -18.7010    37.2060     5.1820 O.co2        1 TYD500   0.0000
     3 O2A        -18.4330    34.7030     4.2380 O.co2        1 TYD500  -1.0000
     4 O3A        -20.4050    36.2450     3.6880 O.3          1 TYD500   0.0000
     5 PB         -20.2950    36.0380     2.0660 P.3          1 TYD500   0.0000
     6 O1B        -18.8300    36.2820     1.6710 O.co2        1 TYD500   0.0000
     7 O2B        -21.3640    37.0400     1.5340 O.co2        1 TYD500  -1.0000
     8 O3B        -20.5780    34.5190     1.9060 O.co2        1 TYD500  -1.0000
     9 O5'        -20.0360    35.2010     6.1320 O.3          1 TYD500   0.0000
    10 C5'        -21.0250    34.1360     6.1450 C.3          1 TYD500   0.0000
    11 C4'        -22.4780    34.6730     6.2830 C.3          1 TYD500   0.0000
    12 O4'        -22.6470    35.5830     7.3920 O.3          1 TYD500   0.0000
    13 C3'        -23.0490    35.4350     5.0680 C.3          1 TYD500   0.0000
    14 O3'        -24.3010    34.8210     4.7200 O.3          1 TYD500   0.0000
    15 C2'        -23.3250    36.8580     5.5340 C.3          1 TYD500   0.0000
    16 C1'        -23.5340    36.6600     7.0490 C.3          1 TYD500   0.0000
    17 N1         -23.2190    37.8880     7.7770 N.pl3        1 TYD500   0.0000
    18 C2         -24.1920    38.5230     8.5930 C.2          1 TYD500   0.0000
    19 O2         -25.3470    38.0490     8.7480 O.2          1 TYD500   0.0000
    20 N3         -23.8850    39.6920     9.2240 N.pl3        1 TYD500   0.0000
    21 C4         -22.6760    40.2930     9.1130 C.2          1 TYD500   0.0000
    22 O4         -22.4790    41.3560     9.7440 O.2          1 TYD500   0.0000
    23 C5         -21.6340    39.6410     8.2740 C.2          1 TYD500   0.0000
    24 C5M        -20.2440    40.2020     8.0800 C.3          1 TYD500   0.0000
    25 C6         -21.9870    38.4380     7.6410 C.2          1 TYD500   0.0000
    26 H5'1       -20.8328    33.5295     6.9165 H            1 TYD500   0.0000
    27 H5'2       -20.9532    33.6215     5.2905 H            1 TYD500   0.0000
    28 H4'        -23.0728    33.8864     6.4487 H            1 TYD500   0.0000
    29 H3'        -22.4111    35.4218     4.2980 H            1 TYD500   0.0000
    30 H5         -24.9083    35.5066     4.3186 H            1 TYD500   0.0000
    31 H2'1       -24.1447    37.2308     5.0992 H            1 TYD500   0.0000
    32 H2'2       -22.5472    37.4587     5.3494 H            1 TYD500   0.0000
    33 H1'        -24.4802    36.3914     7.2292 H            1 TYD500   0.0000
    34 H9         -24.5833    40.1250     9.7940 H            1 TYD500   0.0000
    35 H5M1       -19.7212    39.5970     7.4794 H            1 TYD500   0.0000
    36 H5M2       -20.3059    41.1103     7.6663 H            1 TYD500   0.0000
    37 H5M3       -19.7853    40.2698     8.9660 H            1 TYD500   0.0000
    38 H13        -21.3088    37.9726     7.0723 H            1 TYD500   0.0000
@<TRIPOS>BOND
     1    1    2      ar
     2    1    3      ar
     3    1    4       1
     4    1    9       1
     5    4    5       1
     6    5    6      ar
     7    5    7      ar
     8    5    8      ar
     9    9   10       1
    10   10   11       1
    11   11   12       1
    12   11   13       1
    13   12   16       1
    14   13   14       1
    15   13   15       1
    16   15   16       1
    17   16   17       1
    18   17   18       1
    19   17   25       1
    20   18   19       2
    21   18   20       1
    22   20   21       1
    23   21   22       2
    24   21   23       1
    25   23   24       1
    26   23   25       2
    27   25   38       1
    28   24   37       1
    29   24   36       1
    30   10   26       1
    31   10   27       1
    32   11   28       1
    33   13   29       1
    34   14   30       1
    35   15   31       1
    36   15   32       1
    37   16   33       1
    38   20   34       1
    39   24   35       1
@<TRIPOS>SUBSTRUCTURE
     1 TYD500      1 GROUP             4 B     TYD     0 **** TYD B 500
