@<TRIPOS>MOLECULE
4dpg_APC_8_ligand
   45    47     1     0     0
SMALL
NO_CHARGES


@<TRIPOS>ATOM
     1 PG          51.0970    -9.6830    21.8980 P.3          1 APC603   0.0000
     2 O1G         52.4700    -8.8760    21.6680 O.co2        1 APC603   0.0000
     3 O2G         49.8650    -8.6440    21.9420 O.co2        1 APC603  -1.0000
     4 O3G         50.8910   -10.6610    20.8030 O.co2        1 APC603  -1.0000
     5 PB          52.1580    -9.9790    24.4950 P.3          1 APC603   0.0000
     6 O1B         52.4920    -8.5420    24.3650 O.co2        1 APC603   0.0000
     7 O2B         51.4240   -10.2050    25.9080 O.co2        1 APC603  -1.0000
     8 O3B         51.1960   -10.4760    23.2960 O.3          1 APC603   0.0000
     9 PA          53.3900   -12.7150    24.8920 P.3          1 APC603   0.0000
    10 O1A         52.6490   -13.4280    23.8190 O.co2        1 APC603   0.0000
    11 O2A         54.8190   -13.4160    25.1290 O.co2        1 APC603  -1.0000
    12 C3A         53.6710   -10.9780    24.4300 C.3          1 APC603   0.0000
    13 O5'         52.5510   -12.7740    26.2650 O.3          1 APC603   0.0000
    14 C5'         53.2020   -13.0320    27.5120 C.3          1 APC603   0.0000
    15 C4'         52.1850   -13.4250    28.5870 C.3          1 APC603   0.0000
    16 O4'         52.7300   -13.1970    29.8930 O.3          1 APC603   0.0000
    17 C3'         50.8680   -12.6590    28.4970 C.3          1 APC603   0.0000
    18 O3'         49.7820   -13.5600    28.2690 O.3          1 APC603   0.0000
    19 C2'         50.6610   -11.9940    29.8460 C.3          1 APC603   0.0000
    20 O2'         49.5370   -12.5740    30.5250 O.3          1 APC603   0.0000
    21 C1'         51.9530   -12.2270    30.6200 C.3          1 APC603   0.0000
    22 N9          52.7000   -10.9440    30.7430 N.pl3        1 APC603   0.0000
    23 C8          53.9330   -10.7150    30.2670 C.2          1 APC603   0.0000
    24 N7          54.2970    -9.4430    30.5690 N.2          1 APC603   0.0000
    25 C5          53.2800    -8.8740    31.2420 C.ar         1 APC603   0.0000
    26 C6          53.0990    -7.6140    31.7910 C.ar         1 APC603   0.0000
    27 N6          54.0730    -6.6600    31.7030 N.pl3        1 APC603   0.0000
    28 N1          51.9270    -7.3660    32.4190 N.ar         1 APC603   0.0000
    29 C2          50.9540    -8.2930    32.5170 C.ar         1 APC603   0.0000
    30 N3          51.1060    -9.5120    31.9950 N.ar         1 APC603   0.0000
    31 C4          52.2670    -9.8250    31.3520 C.ar         1 APC603   0.0000
    32 H3A1        54.3409   -10.5844    25.0595 H            1 APC603   0.0000
    33 H3A2        54.0326   -10.9498    23.4981 H            1 APC603   0.0000
    34 H5'1        53.6866   -12.2079    27.8052 H            1 APC603   0.0000
    35 H5'2        53.8564   -13.7785    27.3916 H            1 APC603   0.0000
    36 H4'         51.9888   -14.4011    28.4934 H            1 APC603   0.0000
    37 H3'         50.9114   -11.9724    27.7713 H            1 APC603   0.0000
    38 H7          49.1258   -13.4880    29.0202 H            1 APC603   0.0000
    39 H2'         50.5126   -11.0130    29.7213 H            1 APC603   0.0000
    40 H9          48.8518   -11.8669    30.6995 H            1 APC603   0.0000
    41 H1'         51.7402   -12.5809    31.5308 H            1 APC603   0.0000
    42 H11         54.4944   -11.3760    29.7691 H            1 APC603   0.0000
    43 H12         53.9254    -5.7562    32.1048 H            1 APC603   0.0000
    44 H13         54.9335    -6.8655    31.2368 H            1 APC603   0.0000
    45 H14         50.1029    -8.0636    32.9892 H            1 APC603   0.0000
@<TRIPOS>BOND
     1    1    2      ar
     2    1    3      ar
     3    1    4      ar
     4    1    8       1
     5    5    6      ar
     6    5    7      ar
     7    5    8       1
     8    5   12       1
     9    9   10      ar
    10    9   11      ar
    11    9   12       1
    12    9   13       1
    13   13   14       1
    14   14   15       1
    15   15   16       1
    16   15   17       1
    17   16   21       1
    18   17   18       1
    19   17   19       1
    20   19   20       1
    21   19   21       1
    22   21   22       1
    23   22   23       1
    24   22   31       1
    25   23   24       2
    26   24   25       1
    27   25   26      ar
    28   25   31      ar
    29   26   27       1
    30   26   28      ar
    31   28   29      ar
    32   29   30      ar
    33   30   31      ar
    34   29   45       1
    35   27   44       1
    36   27   43       1
    37   23   42       1
    38   12   32       1
    39   12   33       1
    40   14   34       1
    41   14   35       1
    42   15   36       1
    43   17   37       1
    44   18   38       1
    45   19   39       1
    46   20   40       1
    47   21   41       1
@<TRIPOS>SUBSTRUCTURE
     1 APC603      1 GROUP             4 H     APC     0 **** APC H 603
