@<TRIPOS>MOLECULE
3dge_ADP_2_ligand
   39    41     1     0     0
SMALL
NO_CHARGES


@<TRIPOS>ATOM
     1 PB          48.8070    69.0200     6.2250 P.3          1 ADP600   0.0000
     2 O1B         48.1260    69.2170     7.5690 O.co2        1 ADP600   0.0000
     3 O2B         48.5920    67.6290     5.6560 O.co2        1 ADP600  -1.0000
     4 O3B         50.2360    69.5090     6.0880 O.co2        1 ADP600  -1.0000
     5 PA          47.2080    71.4010     5.4290 P.3          1 ADP600   0.0000
     6 O1A         48.0770    72.6380     5.4800 O.co2        1 ADP600   0.0000
     7 O2A         46.0430    71.2730     6.3620 O.co2        1 ADP600  -1.0000
     8 O3A         48.1430    70.0880     5.2130 O.3          1 ADP600   0.0000
     9 O5'         46.4950    71.2090     3.9900 O.3          1 ADP600   0.0000
    10 C5'         45.9580    69.8990     3.6960 C.3          1 ADP600   0.0000
    11 C4'         46.2030    69.4710     2.2500 C.3          1 ADP600   0.0000
    12 O4'         46.3780    70.5990     1.3750 O.3          1 ADP600   0.0000
    13 C3'         47.4540    68.6230     2.0820 C.3          1 ADP600   0.0000
    14 O3'         47.2040    67.2260     2.2970 O.3          1 ADP600   0.0000
    15 C2'         47.9300    68.9360     0.6610 C.3          1 ADP600   0.0000
    16 O2'         47.4750    67.9740    -0.3020 O.3          1 ADP600   0.0000
    17 C1'         47.2850    70.2620     0.3140 C.3          1 ADP600   0.0000
    18 N9          48.2600    71.3550     0.1530 N.pl3        1 ADP600   0.0000
    19 C8          48.4470    72.3600     1.0280 C.2          1 ADP600   0.0000
    20 N7          49.3880    73.2340     0.5830 N.2          1 ADP600   0.0000
    21 C5          49.8040    72.7850    -0.6070 C.ar         1 ADP600   0.0000
    22 C6          50.7840    73.2440    -1.6160 C.ar         1 ADP600   0.0000
    23 N6          51.5050    74.3830    -1.4030 N.pl3        1 ADP600   0.0000
    24 N1          50.9340    72.4840    -2.7340 N.ar         1 ADP600   0.0000
    25 C2          50.2100    71.3470    -2.9370 C.ar         1 ADP600   0.0000
    26 N3          49.2970    70.8650    -2.0610 N.ar         1 ADP600   0.0000
    27 C4          49.0580    71.5410    -0.8930 C.ar         1 ADP600   0.0000
    28 H5'1        44.9721    69.9128     3.8627 H            1 ADP600   0.0000
    29 H5'2        46.3895    69.2327     4.3041 H            1 ADP600   0.0000
    30 H4'         45.4145    68.9424     1.9356 H            1 ADP600   0.0000
    31 H3'         48.1470    68.9333     2.7328 H            1 ADP600   0.0000
    32 H5          47.3409    67.0077     3.2632 H            1 ADP600   0.0000
    33 H2'         48.9266    69.0137     0.6346 H            1 ADP600   0.0000
    34 H7          48.2635    67.5425    -0.7402 H            1 ADP600   0.0000
    35 H1'         46.7679    70.1597    -0.5358 H            1 ADP600   0.0000
    36 H9          47.9565    72.4520     1.8946 H            1 ADP600   0.0000
    37 H10         52.1667    74.6910    -2.0865 H            1 ADP600   0.0000
    38 H11         51.3716    74.9095    -0.5634 H            1 ADP600   0.0000
    39 H12         50.3624    70.8381    -3.7842 H            1 ADP600   0.0000
@<TRIPOS>BOND
     1    1    2      ar
     2    1    3      ar
     3    1    4      ar
     4    1    8       1
     5    5    6      ar
     6    5    7      ar
     7    5    8       1
     8    5    9       1
     9    9   10       1
    10   10   11       1
    11   11   12       1
    12   11   13       1
    13   12   17       1
    14   13   14       1
    15   13   15       1
    16   15   16       1
    17   15   17       1
    18   17   18       1
    19   18   19       1
    20   18   27       1
    21   19   20       2
    22   20   21       1
    23   21   22      ar
    24   21   27      ar
    25   22   23       1
    26   22   24      ar
    27   24   25      ar
    28   25   26      ar
    29   26   27      ar
    30   25   39       1
    31   23   38       1
    32   23   37       1
    33   10   28       1
    34   10   29       1
    35   11   30       1
    36   13   31       1
    37   14   32       1
    38   15   33       1
    39   16   34       1
    40   17   35       1
    41   19   36       1
@<TRIPOS>SUBSTRUCTURE
     1 ADP600      1 GROUP             4 B     ADP     0 **** ADP B 600
