@<TRIPOS>MOLECULE
3krc_IPE_1_ligand
   23    22     1     0     0
SMALL
NO_CHARGES


@<TRIPOS>ATOM
     1 C1          -9.0500    47.0410    22.8310 C.3          1 IPE902   0.0000
     2 O1          -7.7640    47.1640    22.1200 O.3          1 IPE902   0.0000
     3 C2          -9.0300    46.8990    24.3790 C.2          1 IPE902   0.0000
     4 C3          -8.5750    47.8130    25.3410 C.2          1 IPE902   0.0000
     5 C4          -7.9800    49.2040    25.0230 C.3          1 IPE902   0.0000
     6 C5          -8.6660    47.4260    26.7940 C.3          1 IPE902   0.0000
     7 PA          -7.5320    46.8330    20.5080 P.3          1 IPE902   0.0000
     8 O1A         -7.9370    48.1380    19.6770 O.co2        1 IPE902   0.0000
     9 O2A         -6.0720    46.3400    20.5440 O.co2        1 IPE902  -1.0000
    10 O3A         -8.4040    45.8390    19.6890 O.3          1 IPE902   0.0000
    11 PB          -7.8160    44.6890    18.7930 P.3          1 IPE902   0.0000
    12 O1B         -6.9150    43.6650    19.4460 O.co2        1 IPE902   0.0000
    13 O2B         -7.1840    45.2730    17.5350 O.co2        1 IPE902  -1.0000
    14 O3B         -8.9340    43.7000    18.2670 O.co2        1 IPE902  -1.0000
    15 H1          -9.5131    46.2332    22.4662 H            1 IPE902   0.0000
    16 H2          -9.5856    47.8577    22.6162 H            1 IPE902   0.0000
    17 H3          -9.3909    46.0383    24.7381 H            1 IPE902   0.0000
    18 H4          -7.7313    49.6631    25.8759 H            1 IPE902   0.0000
    19 H5          -7.1656    49.0958    24.4529 H            1 IPE902   0.0000
    20 H6          -8.6583    49.7529    24.5345 H            1 IPE902   0.0000
    21 H7          -8.3080    48.1688    27.3598 H            1 IPE902   0.0000
    22 H8          -9.6215    47.2548    27.0341 H            1 IPE902   0.0000
    23 H9          -8.1288    46.5976    26.9526 H            1 IPE902   0.0000
@<TRIPOS>BOND
     1    1    2       1
     2    1    3       1
     3    2    7       1
     4    3    4       2
     5    4    5       1
     6    4    6       1
     7    7    8      ar
     8    7    9      ar
     9    7   10       1
    10   10   11       1
    11   11   12      ar
    12   11   13      ar
    13   11   14      ar
    14    1   15       1
    15    1   16       1
    16    3   17       1
    17    5   18       1
    18    5   19       1
    19    5   20       1
    20    6   21       1
    21    6   22       1
    22    6   23       1
@<TRIPOS>SUBSTRUCTURE
     1 IPE902      1 GROUP             4 A     IPE     0 **** IPE A 902
