@<TRIPOS>MOLECULE
2ogi_GDP_2_ligand
   40    42     1     0     0
SMALL
NO_CHARGES


@<TRIPOS>ATOM
     1 PB          -7.3970    21.1190    68.2010 P.3          1 GDP400   0.0000
     2 O1B         -7.0380    19.6640    68.0860 O.co2        1 GDP400   0.0000
     3 O2B         -8.9000    21.3810    68.3030 O.co2        1 GDP400  -1.0000
     4 O3B         -6.5800    21.7830    69.3310 O.co2        1 GDP400  -1.0000
     5 O3A         -6.8060    21.7830    66.8140 O.3          1 GDP400   0.0000
     6 PA          -7.6570    22.4040    65.5720 P.3          1 GDP400   0.0000
     7 O1A         -9.0230    22.9610    65.9730 O.co2        1 GDP400   0.0000
     8 O2A         -6.6670    23.3680    64.8670 O.co2        1 GDP400  -1.0000
     9 O5'         -7.7660    21.1120    64.5830 O.3          1 GDP400   0.0000
    10 C5'         -8.5470    19.9750    64.8800 C.3          1 GDP400   0.0000
    11 C4'         -8.2490    18.9020    63.8190 C.3          1 GDP400   0.0000
    12 O4'         -8.8580    19.3460    62.5880 O.3          1 GDP400   0.0000
    13 C3'         -6.7680    18.5640    63.5170 C.3          1 GDP400   0.0000
    14 O3'         -6.5380    17.1250    63.5050 O.3          1 GDP400   0.0000
    15 C2'         -6.5090    19.1850    62.1390 C.3          1 GDP400   0.0000
    16 O2'         -5.5570    18.5170    61.2840 O.3          1 GDP400   0.0000
    17 C1'         -7.9080    19.0770    61.5490 C.3          1 GDP400   0.0000
    18 N9          -8.0540    19.9370    60.3730 N.pl3        1 GDP400   0.0000
    19 C8          -7.5120    21.1440    60.1000 C.2          1 GDP400   0.0000
    20 N7          -7.9170    21.5890    58.8860 N.2          1 GDP400   0.0000
    21 C5          -8.7310    20.6420    58.3990 C.2          1 GDP400   0.0000
    22 C6          -9.4640    20.4700    57.1670 C.2          1 GDP400   0.0000
    23 O6          -9.3430    21.4050    56.3770 O.2          1 GDP400   0.0000
    24 N1         -10.2170    19.3600    56.9780 N.pl3        1 GDP400   0.0000
    25 C2         -10.2760    18.3970    57.9310 C.2          1 GDP400   0.0000
    26 N2         -11.0310    17.3080    57.6930 N.pl3        1 GDP400   0.0000
    27 N3          -9.5910    18.4740    59.1290 N.2          1 GDP400   0.0000
    28 C4          -8.8300    19.5630    59.3780 C.2          1 GDP400   0.0000
    29 H5'1        -9.5176    20.2147    64.8567 H            1 GDP400   0.0000
    30 H5'2        -8.3108    19.6290    65.7880 H            1 GDP400   0.0000
    31 H4'         -8.7053    18.0577    64.0999 H            1 GDP400   0.0000
    32 H3'         -6.1770    18.9952    64.1987 H            1 GDP400   0.0000
    33 H5          -5.6000    16.9349    63.7949 H            1 GDP400   0.0000
    34 H2'         -6.2568    20.1472    62.2418 H            1 GDP400   0.0000
    35 H7          -5.4770    19.0155    60.4208 H            1 GDP400   0.0000
    36 H1'         -8.0410    18.1312    61.2526 H            1 GDP400   0.0000
    37 H9          -6.8958    21.6413    60.7107 H            1 GDP400   0.0000
    38 H10        -10.7336    19.2498    56.1289 H            1 GDP400   0.0000
    39 H11        -11.0924    16.5826    58.3786 H            1 GDP400   0.0000
    40 H12        -11.5304    17.2246    56.8307 H            1 GDP400   0.0000
@<TRIPOS>BOND
     1    1    2      ar
     2    1    3      ar
     3    1    4      ar
     4    1    5       1
     5    5    6       1
     6    6    7      ar
     7    6    8      ar
     8    6    9       1
     9    9   10       1
    10   10   11       1
    11   11   12       1
    12   11   13       1
    13   12   17       1
    14   13   14       1
    15   13   15       1
    16   15   16       1
    17   15   17       1
    18   17   18       1
    19   18   19       1
    20   18   28       1
    21   19   20       2
    22   20   21       1
    23   21   22       1
    24   21   28       2
    25   22   23       2
    26   22   24       1
    27   24   25       1
    28   25   26       1
    29   25   27       2
    30   27   28       1
    31   26   40       1
    32   26   39       1
    33   24   38       1
    34   10   29       1
    35   10   30       1
    36   11   31       1
    37   13   32       1
    38   14   33       1
    39   15   34       1
    40   16   35       1
    41   17   36       1
    42   19   37       1
@<TRIPOS>SUBSTRUCTURE
     1 GDP400      1 GROUP             4 B     GDP     0 **** GDP B 400
