@<TRIPOS>MOLECULE
4dya_0MF_2_ligand
   64    68     1     0     0
SMALL
NO_CHARGES


@<TRIPOS>ATOM
     1 C1           0.4200   -28.9320    14.2550 C.ar         1 0MF601   0.0000
     2 C2          -0.5370   -29.7170    13.6080 C.ar         1 0MF601   0.0000
     3 C3          -4.9390   -38.0760    11.2310 C.2          1 0MF601   0.0000
     4 C4           1.5200   -28.4530    13.5440 C.ar         1 0MF601   0.0000
     5 C5          -0.3910   -30.0220    12.2530 C.ar         1 0MF601   0.0000
     6 C6          -3.9390   -37.1580    10.8330 C.2          1 0MF601   0.0000
     7 C7           0.6750   -34.9950    12.9410 C.ar         1 0MF601   0.0000
     8 C8           1.6770   -35.6330    15.4820 C.ar         1 0MF601   0.0000
     9 C9          -4.5900   -38.4990    12.4950 C.2          1 0MF601   0.0000
    10 C10          1.6670   -28.7580    12.1910 C.ar         1 0MF601   0.0000
    11 C11          3.6570   -28.9340    10.5830 C.2          1 0MF601   0.0000
    12 C12          1.8530   -34.4050    13.3950 C.ar         1 0MF601   0.0000
    13 C13          0.0040   -35.9060    13.7590 C.ar         1 0MF601   0.0000
    14 C14          0.5050   -36.2200    15.0210 C.ar         1 0MF601   0.0000
    15 C15          0.7120   -29.5410    11.5440 C.ar         1 0MF601   0.0000
    16 C16          2.3430   -34.7250    14.6640 C.ar         1 0MF601   0.0000
    17 C17          2.8180   -28.2520    11.4880 C.2          1 0MF601   0.0000
    18 C18         -3.0500   -37.0830    11.8830 C.2          1 0MF601   0.0000
    19 C19          4.5780   -27.9790    10.2320 C.2          1 0MF601   0.0000
    20 C20          3.6370   -30.3130    10.0590 C.2          1 0MF601   0.0000
    21 C21         -1.8100   -36.3020    12.0620 C.2          1 0MF601   0.0000
    22 C22          2.4470   -33.6140    11.1160 C.3          1 0MF601   0.0000
    23 C23          2.4870   -32.0840    13.0440 C.3          1 0MF601   0.0000
    24 C24          3.5830   -32.8160    10.4810 C.3          1 0MF601   0.0000
    25 C25          3.5710   -31.2410    12.3740 C.3          1 0MF601   0.0000
    26 C26          5.7390   -27.9750     9.3330 C.3          1 0MF601   0.0000
    27 C27         -0.1910   -30.6640     9.6430 C.3          1 0MF601   0.0000
    28 N28          3.2060   -26.9860    11.6840 N.2          1 0MF601   0.0000
    29 N29          2.5180   -33.4820    12.5750 N.pl3        1 0MF601   0.0000
    30 N30          3.5920   -31.4160    10.9230 N.am         1 0MF601   0.0000
    31 N31         -1.1690   -36.5010    13.2980 N.am         1 0MF601   0.0000
    32 N32         -0.1660   -37.1400    15.8600 N.2          1 0MF601   1.0000
    33 O33          0.1300   -37.1670    17.0750 O.co2        1 0MF601   0.0000
    34 O34          3.6690   -30.4060     8.8340 O.2          1 0MF601   0.0000
    35 O35         -1.3950   -35.5440    11.1850 O.2          1 0MF601   0.0000
    36 O36         -1.1760   -37.7300    15.4110 O.co2        1 0MF601  -1.0000
    37 O37         -3.4400   -37.8990    12.9050 O.2          1 0MF601   0.0000
    38 O38          4.3230   -26.8140    10.8820 O.2          1 0MF601   0.0000
    39 O39          0.8300   -29.8520    10.2200 O.3          1 0MF601   0.0000
    40 CL4          3.7950   -34.0340    15.2740 Cl           1 0MF601   0.0000
    41 H1           0.3167   -28.7140    15.2255 H            1 0MF601   0.0000
    42 H2          -1.3272   -30.0609    14.1153 H            1 0MF601   0.0000
    43 H3          -5.7382   -38.3606    10.7016 H            1 0MF601   0.0000
    44 H4           2.2051   -27.8894    14.0055 H            1 0MF601   0.0000
    45 H5          -1.0761   -30.5847    11.7904 H            1 0MF601   0.0000
    46 H6          -3.8877   -36.6636     9.9653 H            1 0MF601   0.0000
    47 H7           0.3133   -34.7678    12.0368 H            1 0MF601   0.0000
    48 H8           2.0363   -35.8594    16.3873 H            1 0MF601   0.0000
    49 H9          -5.1114   -39.1577    13.0374 H            1 0MF601   0.0000
    50 H10          2.5338   -34.5776    10.8632 H            1 0MF601   0.0000
    51 H11          1.5692   -33.2619    10.7911 H            1 0MF601   0.0000
    52 H12          1.5925   -31.6904    12.8318 H            1 0MF601   0.0000
    53 H13          2.6309   -32.0705    14.0335 H            1 0MF601   0.0000
    54 H14          3.4764   -32.8392     9.4870 H            1 0MF601   0.0000
    55 H15          4.4535   -33.2388    10.7328 H            1 0MF601   0.0000
    56 H16          4.4609   -31.5090    12.7432 H            1 0MF601   0.0000
    57 H17          3.4016   -30.2771    12.5793 H            1 0MF601   0.0000
    58 H18          6.1668   -27.0712     9.3451 H            1 0MF601   0.0000
    59 H19          6.3997   -28.6606     9.6387 H            1 0MF601   0.0000
    60 H20          5.4412   -28.1904     8.4030 H            1 0MF601   0.0000
    61 H21          0.0119   -30.8175     8.6759 H            1 0MF601   0.0000
    62 H22         -0.2274   -31.5424    10.1195 H            1 0MF601   0.0000
    63 H23         -1.0733   -30.2013     9.7291 H            1 0MF601   0.0000
    64 H24         -1.6081   -37.1478    13.9216 H            1 0MF601   0.0000
@<TRIPOS>BOND
     1    1    2      ar
     2    1    4      ar
     3    2    5      ar
     4    3    6       1
     5    3    9       2
     6    4   10      ar
     7    5   15      ar
     8    6   18       2
     9    7   12      ar
    10    7   13      ar
    11    8   14      ar
    12    8   16      ar
    13    9   37       1
    14   10   15      ar
    15   10   17       1
    16   11   17       1
    17   11   19       2
    18   11   20       1
    19   12   16      ar
    20   12   29       1
    21   13   14      ar
    22   13   31       1
    23   14   32       1
    24   15   39       1
    25   16   40       1
    26   17   28       2
    27   18   21       1
    28   18   37       1
    29   19   26       1
    30   19   38       1
    31   20   30      am
    32   20   34       2
    33   21   31      am
    34   21   35       2
    35   22   24       1
    36   22   29       1
    37   23   25       1
    38   23   29       1
    39   24   30       1
    40   25   30       1
    41   27   39       1
    42   28   38       1
    43   32   33      ar
    44   32   36      ar
    45    1   41       1
    46    2   42       1
    47    3   43       1
    48    4   44       1
    49    5   45       1
    50    6   46       1
    51    7   47       1
    52    8   48       1
    53    9   49       1
    54   22   50       1
    55   22   51       1
    56   23   52       1
    57   23   53       1
    58   24   54       1
    59   24   55       1
    60   25   56       1
    61   25   57       1
    62   26   58       1
    63   26   59       1
    64   26   60       1
    65   27   61       1
    66   27   62       1
    67   27   63       1
    68   31   64       1
@<TRIPOS>SUBSTRUCTURE
     1 0MF601      1 GROUP             4 B     0MF     0 **** 0MF B 601
