@<TRIPOS>MOLECULE
1z4u_PH9_1_ligand
   57    61     1     0     0
SMALL
NO_CHARGES


@<TRIPOS>ATOM
     1 CB2        -10.8320    55.7820    47.6710 C.ar         1 PH9600   0.0000
     2 CB3        -11.8860    56.1380    46.7730 C.ar         1 PH9600   0.0000
     3 CB4        -13.1200    56.6640    47.2650 C.ar         1 PH9600   0.0000
     4 CB6        -13.3020    56.8460    48.6600 C.ar         1 PH9600   0.0000
     5 CB5        -12.2210    56.4890    49.5260 C.ar         1 PH9600   0.0000
     6 CB1        -11.0330    55.9750    49.0310 C.ar         1 PH9600   0.0000
     7 C2          -8.4160    54.7970    47.8060 C.2          1 PH9600   0.0000
     8 C1          -9.5390    55.2420    47.1870 C.2          1 PH9600   0.0000
     9 N           -8.1930    54.7080    49.2050 N.am         1 PH9600   0.0000
    10 C           -7.9010    55.7510    50.0280 C.2          1 PH9600   0.0000
    11 CO2         -7.2790    54.3120    46.9520 C.2          1 PH9600   0.0000
    12 O           -7.7860    56.9390    49.6670 O.2          1 PH9600   0.0000
    13 OC1         -7.3810    54.5290    45.7200 O.co2        1 PH9600   0.0000
    14 OC2         -6.3080    53.7140    47.4700 O.co2        1 PH9600  -1.0000
    15 OAB        -14.4880    57.3690    49.1480 O.3          1 PH9600   0.0000
    16 CA1        -14.7360    57.6270    50.4940 C.ar         1 PH9600   0.0000
    17 CA2        -14.6250    58.9820    50.9660 C.ar         1 PH9600   0.0000
    18 CA3        -14.8730    59.2790    52.3570 C.ar         1 PH9600   0.0000
    19 CA4        -15.2180    58.2270    53.2740 C.ar         1 PH9600   0.0000
    20 CA5        -15.3290    56.8760    52.8170 C.ar         1 PH9600   0.0000
    21 CA6        -15.0850    56.5850    51.4410 C.ar         1 PH9600   0.0000
    22 BRA2       -14.1610    60.3490    49.7070 Br           1 PH9600   0.0000
    23 CC4         -8.5850    55.4740    54.3960 C.3          1 PH9600   0.0000
    24 CC3         -7.2410    56.1230    53.9180 C.3          1 PH9600   0.0000
    25 CC5         -8.9010    54.2060    53.5190 C.3          1 PH9600   0.0000
    26 CC2         -7.4020    56.5610    52.4290 C.3          1 PH9600   0.0000
    27 CC6         -9.0480    54.6570    52.0300 C.3          1 PH9600   0.0000
    28 CC1         -7.7300    55.3330    51.5000 C.3          1 PH9600   0.0000
    29 C10         -7.7220    53.1640    53.6250 C.3          1 PH9600   0.0000
    30 CC8         -6.3920    53.8240    53.1410 C.3          1 PH9600   0.0000
    31 CC9         -6.0800    55.0760    54.0270 C.3          1 PH9600   0.0000
    32 CC7         -6.5710    54.2770    51.6570 C.3          1 PH9600   0.0000
    33 HB3        -11.7580    56.0174    45.7886 H            1 PH9600   0.0000
    34 HB4        -13.8529    56.9030    46.6281 H            1 PH9600   0.0000
    35 HB5        -12.3250    56.6134    50.5128 H            1 PH9600   0.0000
    36 HB1        -10.3016    55.7370    49.6700 H            1 PH9600   0.0000
    37 H5          -9.4819    55.1956    46.1897 H            1 PH9600   0.0000
    38 H6          -8.2559    53.8009    49.6212 H            1 PH9600   0.0000
    39 HA3        -14.8044    60.2214    52.6843 H            1 PH9600   0.0000
    40 HA4        -15.3814    58.4409    54.2371 H            1 PH9600   0.0000
    41 HA5        -15.5744    56.1447    53.4534 H            1 PH9600   0.0000
    42 HA6        -15.1564    55.6399    51.1221 H            1 PH9600   0.0000
    43 HC41        -9.3271    56.1375    54.3011 H            1 PH9600   0.0000
    44 HC42        -8.5010    55.2028    55.3548 H            1 PH9600   0.0000
    45 HC3         -7.0310    56.9204    54.4838 H            1 PH9600   0.0000
    46 HC5         -9.7529    53.7845    53.8297 H            1 PH9600   0.0000
    47 HC21        -6.5499    56.9837    52.1204 H            1 PH9600   0.0000
    48 HC22        -8.1463    57.2257    52.3642 H            1 PH9600   0.0000
    49 HC61        -9.7998    55.3129    51.9618 H            1 PH9600   0.0000
    50 HC62        -9.2519    53.8564    51.4665 H            1 PH9600   0.0000
    51 H19         -7.9271    52.3704    53.0521 H            1 PH9600   0.0000
    52 H20         -7.6212    52.8715    54.5759 H            1 PH9600   0.0000
    53 HC8         -5.6423    53.1656    53.2072 H            1 PH9600   0.0000
    54 HC91        -5.9826    54.7895    54.9801 H            1 PH9600   0.0000
    55 HC92        -5.2272    55.4957    53.7163 H            1 PH9600   0.0000
    56 HC71        -5.7158    54.6860    51.3385 H            1 PH9600   0.0000
    57 HC72        -6.7858    53.4760    51.0982 H            1 PH9600   0.0000
@<TRIPOS>BOND
     1    1    2      ar
     2    1    6      ar
     3    1    8       1
     4    2    3      ar
     5    3    4      ar
     6    4    5      ar
     7    4   15       1
     8    5    6      ar
     9    7    8       2
    10    7    9       1
    11    7   11       1
    12    9   10      am
    13   10   12       2
    14   10   28       1
    15   11   13      ar
    16   11   14      ar
    17   15   16       1
    18   16   17      ar
    19   16   21      ar
    20   17   18      ar
    21   17   22       1
    22   18   19      ar
    23   19   20      ar
    24   20   21      ar
    25   23   24       1
    26   23   25       1
    27   24   26       1
    28   24   31       1
    29   25   27       1
    30   25   29       1
    31   26   28       1
    32   27   28       1
    33   28   32       1
    34   29   30       1
    35   30   31       1
    36   30   32       1
    37    2   33       1
    38    3   34       1
    39    5   35       1
    40    6   36       1
    41    8   37       1
    42    9   38       1
    43   32   57       1
    44   18   39       1
    45   19   40       1
    46   20   41       1
    47   21   42       1
    48   23   43       1
    49   23   44       1
    50   24   45       1
    51   25   46       1
    52   26   47       1
    53   26   48       1
    54   27   49       1
    55   27   50       1
    56   29   51       1
    57   29   52       1
    58   30   53       1
    59   31   54       1
    60   31   55       1
    61   32   56       1
@<TRIPOS>SUBSTRUCTURE
     1 PH9600      1 GROUP             4 A     PH9     0 **** PH9 A 600
