@<TRIPOS>MOLECULE
3nca_TR2_1_ligand
   15    16     1     0     0
SMALL
NO_CHARGES


@<TRIPOS>ATOM
     1 C10         -3.3910    -1.0090    18.1530 C.2          1 TR2300   0.0000
     2 O01         -2.3380    -0.8750    15.9280 O.2          1 TR2300   0.0000
     3 C02         -2.9980    -0.2880    17.0010 C.2          1 TR2300   0.0000
     4 C03         -3.3340     1.0630    16.8280 C.2          1 TR2300   0.0000
     5 C04         -4.0950     1.7030    17.8380 C.2          1 TR2300   0.0000
     6 N05         -4.5130     1.0790    18.9630 N.pl3        1 TR2300   0.0000
     7 C06         -4.1610    -0.2550    19.1030 C.2          1 TR2300   0.0000
     8 C07         -4.5440    -1.0520    20.2650 C.2          1 TR2300   0.0000
     9 C08         -4.0870    -2.3280    20.1930 C.2          1 TR2300   0.0000
    10 S09         -3.1840    -2.6410    18.7440 S.3          1 TR2300   0.0000
    11 H1          -3.0436     1.5624    16.0118 H            1 TR2300   0.0000
    12 H2          -4.3353     2.6655    17.7124 H            1 TR2300   0.0000
    13 H3          -5.0493     1.5560    19.6593 H            1 TR2300   0.0000
    14 H4          -5.0830    -0.6972    21.0289 H            1 TR2300   0.0000
    15 H5          -4.2530    -3.0153    20.9001 H            1 TR2300   0.0000
@<TRIPOS>BOND
     1    1    3       1
     2    1    7       2
     3    1   10       1
     4    2    3       2
     5    3    4       1
     6    4    5       2
     7    5    6       1
     8    6    7       1
     9    7    8       1
    10    8    9       2
    11    9   10       1
    12    4   11       1
    13    5   12       1
    14    6   13       1
    15    8   14       1
    16    9   15       1
@<TRIPOS>SUBSTRUCTURE
     1 TR2300      1 GROUP             4 A     TR2     0 **** TR2 A 300
