@<TRIPOS>MOLECULE
3nl6_ACP_3_ligand
   45    47     1     0     0
SMALL
NO_CHARGES


@<TRIPOS>ATOM
     1 PG          40.5570    22.5470   -29.6890 P.3          1 ACP799   0.0000
     2 O1G         41.8910    21.8240   -30.3300 O.co2        1 ACP799   0.0000
     3 O2G         40.9160    23.1400   -28.1950 O.co2        1 ACP799  -1.0000
     4 O3G         39.4810    21.5640   -29.5750 O.co2        1 ACP799  -1.0000
     5 PB          39.8420    25.6530   -30.0410 P.3          1 ACP799   0.0000
     6 O1B         40.9470    26.6650   -30.7170 O.co2        1 ACP799   0.0000
     7 O2B         40.0770    25.5690   -28.6040 O.co2        1 ACP799  -1.0000
     8 C3B         40.0070    23.9480   -30.8010 C.3          1 ACP799   0.0000
     9 PA          38.0670    27.3970   -31.4990 P.3          1 ACP799   0.0000
    10 O1A         36.5770    28.0740   -31.3070 O.co2        1 ACP799   0.0000
    11 O2A         39.0930    28.4340   -31.3840 O.co2        1 ACP799  -1.0000
    12 O3A         38.3080    26.2420   -30.3160 O.3          1 ACP799   0.0000
    13 O5'         38.1650    26.6840   -33.0060 O.3          1 ACP799   0.0000
    14 C5'         38.5740    27.4520   -34.1270 C.3          1 ACP799   0.0000
    15 C4'         38.1200    26.9750   -35.5200 C.3          1 ACP799   0.0000
    16 O4'         36.7250    26.4860   -35.6350 O.3          1 ACP799   0.0000
    17 C3'         38.2560    27.9820   -36.6590 C.3          1 ACP799   0.0000
    18 O3'         38.7590    27.4890   -37.8720 O.3          1 ACP799   0.0000
    19 C2'         36.8930    28.6300   -36.7110 C.3          1 ACP799   0.0000
    20 O2'         36.5940    29.3640   -37.8670 O.3          1 ACP799   0.0000
    21 C1'         35.9530    27.4900   -36.3750 C.3          1 ACP799   0.0000
    22 N9          34.8180    27.9830   -35.5540 N.pl3        1 ACP799   0.0000
    23 C8          34.6770    27.8970   -34.2050 C.2          1 ACP799   0.0000
    24 N7          33.4360    28.5020   -33.8510 N.2          1 ACP799   0.0000
    25 C5          32.8200    28.9620   -35.0380 C.ar         1 ACP799   0.0000
    26 C6          31.6020    29.6230   -35.2720 C.ar         1 ACP799   0.0000
    27 N6          30.7160    29.9520   -34.1550 N.pl3        1 ACP799   0.0000
    28 N1          31.2480    29.9550   -36.5290 N.ar         1 ACP799   0.0000
    29 C2          32.0780    29.6480   -37.5800 C.ar         1 ACP799   0.0000
    30 N3          33.2860    28.9910   -37.3480 N.ar         1 ACP799   0.0000
    31 C4          33.6440    28.6570   -36.0860 C.ar         1 ACP799   0.0000
    32 H3B1        39.1129    23.6997   -31.1736 H            1 ACP799   0.0000
    33 H3B2        40.6711    24.0162   -31.5455 H            1 ACP799   0.0000
    34 H5'1        39.5738    27.4713   -34.1282 H            1 ACP799   0.0000
    35 H5'2        38.2228    28.3795   -33.9988 H            1 ACP799   0.0000
    36 H4'         38.7085    26.2021   -35.7573 H            1 ACP799   0.0000
    37 H3'         38.8961    28.6840   -36.3468 H            1 ACP799   0.0000
    38 H7          38.8042    28.2314   -38.5404 H            1 ACP799   0.0000
    39 H2'         36.8510    29.2716   -35.9451 H            1 ACP799   0.0000
    40 H9          37.2545    30.1078   -37.9697 H            1 ACP799   0.0000
    41 H1'         35.6030    27.0858   -37.2200 H            1 ACP799   0.0000
    42 H11         35.3299    27.4818   -33.5715 H            1 ACP799   0.0000
    43 H12         29.8501    30.4224   -34.3254 H            1 ACP799   0.0000
    44 H13         30.9763    29.7065   -33.2212 H            1 ACP799   0.0000
    45 H14         31.8155    29.8960   -38.5125 H            1 ACP799   0.0000
@<TRIPOS>BOND
     1    1    2      ar
     2    1    3      ar
     3    1    4      ar
     4    1    8       1
     5    5    6      ar
     6    5    7      ar
     7    5    8       1
     8    5   12       1
     9    9   10      ar
    10    9   11      ar
    11    9   12       1
    12    9   13       1
    13   13   14       1
    14   14   15       1
    15   15   16       1
    16   15   17       1
    17   16   21       1
    18   17   18       1
    19   17   19       1
    20   19   20       1
    21   19   21       1
    22   21   22       1
    23   22   23       1
    24   22   31       1
    25   23   24       2
    26   24   25       1
    27   25   26      ar
    28   25   31      ar
    29   26   27       1
    30   26   28      ar
    31   28   29      ar
    32   29   30      ar
    33   30   31      ar
    34   29   45       1
    35   27   44       1
    36   27   43       1
    37    8   32       1
    38    8   33       1
    39   23   42       1
    40   14   34       1
    41   14   35       1
    42   15   36       1
    43   17   37       1
    44   18   38       1
    45   19   39       1
    46   20   40       1
    47   21   41       1
@<TRIPOS>SUBSTRUCTURE
     1 ACP799      1 GROUP             4 A     ACP     0 **** ACP A 799
