@<TRIPOS>MOLECULE
./coach420/2vu9/ligand.pdb
 87 87 0 0 0
SMALL
GASTEIGER

@<TRIPOS>ATOM
      1 MG         15.9870   16.8360   -5.0110 Mg    2298  MG2298      0.0000
      2  C3        -7.6090   -3.9540   16.2220 C.3   2299  BGC2299     0.0000
      3  C4        -7.6380   -3.5990   14.7330 C.3   2299  BGC2299     0.0000
      4  C5        -8.9580   -2.9420   14.3520 C.3   2299  BGC2299     0.0000
      5  C6        -9.0650   -2.7630   12.8350 C.3   2299  BGC2299     0.0000
      6  C1       -10.1250   -4.1050   16.1180 C.3   2299  BGC2299     0.0000
      7  O1       -11.2740   -4.9850   16.2750 O.3   2299  BGC2299     0.0000
      8  O2        -8.8880   -4.8890   18.0510 O.3   2299  BGC2299     0.0000
      9  O3        -6.3990   -4.6630   16.5300 O.3   2299  BGC2299     0.0000
     10  O4        -6.5480   -2.6690   14.5270 O.3   2299  BGC2299     0.0000
     11  O5       -10.0470   -3.7950   14.7130 O.3   2299  BGC2299     0.0000
     12  O6        -8.7870   -4.0120   12.1870 O.3   2299  BGC2299     0.0000
     13  C1        -5.7630   -2.9710   13.3790 C.3   2300  GAL2300     0.0000
     14  C2        -5.2190   -1.6350   12.8780 C.3   2300  GAL2300     0.0000
     15  C3        -4.2330   -1.8710   11.7450 C.3   2300  GAL2300     0.0000
     16  C4        -3.1420   -2.8710   12.2060 C.3   2300  GAL2300     0.0000
     17  C5        -3.7990   -4.1950   12.6520 C.3   2300  GAL2300     0.0000
     18  C6        -2.7910   -5.1890   13.1420 C.3   2300  GAL2300     0.0000
     19  O2        -6.2970   -0.7890   12.4590 O.3   2300  GAL2300     0.0000
     20  O3        -3.6490   -0.6070   11.3970 O.3   2300  GAL2300     0.0000
     21  O4        -2.4300   -2.3090   13.3160 O.3   2300  GAL2300     0.0000
     22  O5        -4.6500   -3.8180   13.7410 O.3   2300  GAL2300     0.0000
     23  O6        -2.7490   -5.0590   14.5590 O.3   2300  GAL2300     0.0000
     24  C1        -2.6160   -1.5400    9.3860 C.2   2302  SIA2302     0.0000
     25  C2        -3.4940   -0.4310   10.0000 C.3   2302  SIA2302     0.0000
     26  C3        -2.8480    0.9420    9.7890 C.3   2302  SIA2302     0.0000
     27  C4        -2.7830    1.2620    8.3040 C.3   2302  SIA2302     0.0000
     28  C5        -4.1840    1.1620    7.6790 C.3   2302  SIA2302     0.0000
     29  C6        -4.8440   -0.1980    7.9910 C.3   2302  SIA2302     0.0000
     30  C7        -6.3250   -0.2070    7.5220 C.3   2302  SIA2302     0.0000
     31  C8        -6.8890   -1.6380    7.5770 C.3   2302  SIA2302     0.0000
     32  C9        -7.6300   -1.9000    8.9060 C.3   2302  SIA2302     0.0000
     33  C10       -4.6860    2.4060    5.6380 C.2   2302  SIA2302     0.0000
     34  C11       -4.5370    2.4430    4.1100 C.3   2302  SIA2302     0.0000
     35  N5        -4.1250    1.3480    6.2260 N.am  2302  SIA2302     0.0000
     36  O1A       -3.2250   -2.5030    8.8610 O.co2 2302  SIA2302     0.0000
     37  O1B       -1.3570   -1.4250    9.4710 O.co2 2302  SIA2302     0.0000
     38  O4        -2.2630    2.5960    8.1560 O.3   2302  SIA2302     0.0000
     39  O6        -4.8270   -0.4280    9.4120 O.3   2302  SIA2302     0.0000
     40  O7        -7.0820    0.6870    8.3450 O.3   2302  SIA2302     0.0000
     41  O8        -7.7400   -1.8730    6.4180 O.3   2302  SIA2302     0.0000
     42  O9        -7.7010   -3.3070    9.1940 O.3   2302  SIA2302     0.0000
     43  O10       -5.2660    3.2980    6.2580 O.2   2302  SIA2302     0.0000
     44  C2         1.8290    3.1110   14.5180 C.3   2301  GAL2301     0.0000
     45  C3         2.9020    4.1050   14.1000 C.3   2301  GAL2301     0.0000
     46  C4         4.2560    3.3850   14.1640 C.3   2301  GAL2301     0.0000
     47  C5         4.2020    1.9800   13.5000 C.3   2301  GAL2301     0.0000
     48  C6         5.5150    1.2350   13.6640 C.3   2301  GAL2301     0.0000
     49  O2         0.5490    3.6980   14.2560 O.3   2301  GAL2301     0.0000
     50  O3         2.9120    5.2440   14.9970 O.3   2301  GAL2301     0.0000
     51  O4         4.6210    3.2390   15.5270 O.3   2301  GAL2301     0.0000
     52  O5         3.2500    1.2080   14.1890 O.3   2301  GAL2301     0.0000
     53  O6         5.4210   -0.0740   13.0910 O.3   2301  GAL2301     0.0000
     54  C1         3.2720    6.7390   13.0530 C.2   2303  SIA2303     0.0000
     55  C2         2.5490    6.4960   14.3890 C.3   2303  SIA2303     0.0000
     56  C3         2.9720    7.5030   15.4690 C.3   2303  SIA2303     0.0000
     57  C4         2.0820    8.7400   15.5680 C.3   2303  SIA2303     0.0000
     58  C5         0.5780    8.4330   15.4020 C.3   2303  SIA2303     0.0000
     59  C6         0.4380    7.6740   14.0850 C.3   2303  SIA2303     0.0000
     60  C7        -0.9940    7.3350   13.6360 C.3   2303  SIA2303     0.0000
     61  C8        -1.1000    7.4230   12.1010 C.3   2303  SIA2303     0.0000
     62  C9        -1.1030    8.8990   11.6420 C.3   2303  SIA2303     0.0000
     63  C10       -0.9950   10.1940   16.2240 C.2   2303  SIA2303     0.0000
     64  C11       -1.6280   11.5320   15.8370 C.3   2303  SIA2303     0.0000
     65  N5        -0.1770    9.7030   15.2960 N.am  2303  SIA2303     0.0000
     66  O1A        2.5630    6.9090   12.0350 O.co2 2303  SIA2303     0.0000
     67  O1B        4.5120    6.7320   13.0700 O.co2 2303  SIA2303     0.0000
     68  O4         2.3550    9.4260   16.8190 O.3   2303  SIA2303     0.0000
     69  O6         1.1320    6.4290   14.2040 O.3   2303  SIA2303     0.0000
     70  O7        -1.3700    6.0210   14.0970 O.3   2303  SIA2303     0.0000
     71  O8        -0.0520    6.6770   11.4750 O.3   2303  SIA2303     0.0000
     72  O9        -0.1100    9.1970   10.6510 O.3   2303  SIA2303     0.0000
     73  O10       -1.2480    9.6580   17.3060 O.2   2303  SIA2303     0.0000
     74  C1        -1.1700   -1.7800   12.8940 C.3   2304  NGA2304     0.0000
     75  C2        -0.8040   -0.6470   13.8480 C.3   2304  NGA2304     0.0000
     76  C3         0.5560   -0.0760   13.4080 C.3   2304  NGA2304     0.0000
     77  C4         1.5550   -1.2430   13.3840 C.3   2304  NGA2304     0.0000
     78  C5         1.0360   -2.3690   12.4910 C.3   2304  NGA2304     0.0000
     79  C6         1.9660   -3.5790   12.3640 C.3   2304  NGA2304     0.0000
     80  C7        -2.7460    0.6550   14.6980 C.2   2304  NGA2304     0.0000
     81  C8        -2.8200   -0.3340   15.8270 C.3   2304  NGA2304     0.0000
     82  N2        -1.7880    0.4510   13.7980 N.am  2304  NGA2304     0.0000
     83  O3         0.9420    0.9370   14.3520 O.3   2304  NGA2304     0.0000
     84  O4         1.7460   -1.7110   14.7110 O.3   2304  NGA2304     0.0000
     85  O5        -0.1830   -2.8120   13.0520 O.3   2304  NGA2304     0.0000
     86  O6         1.4900   -4.3840   11.2620 O.3   2304  NGA2304     0.0000
     87  O7        -3.5610    1.5840   14.6370 O.2   2304  NGA2304     0.0000
@<TRIPOS>BOND
     1     2     3    1
     2     2     9    1
     3     3     4    1
     4     3    10    1
     5     4     5    1
     6     4    11    1
     7     5    12    1
     8     6    11    1
     9     6     7    1
    10    10    13    1
    11    13    14    1
    12    13    22    1
    13    14    15    1
    14    14    19    1
    15    15    20    1
    16    15    16    1
    17    16    17    1
    18    16    21    1
    19    17    18    1
    20    17    22    1
    21    18    23    1
    22    20    25    1
    23    21    74    1
    24    24    36   ar
    25    24    37   ar
    26    24    25    1
    27    25    39    1
    28    25    26    1
    29    26    27    1
    30    27    28    1
    31    27    38    1
    32    28    35    1
    33    28    29    1
    34    29    30    1
    35    29    39    1
    36    30    31    1
    37    30    40    1
    38    31    41    1
    39    31    32    1
    40    32    42    1
    41    33    34    1
    42    33    35   am
    43    33    43    2
    44    44    45    1
    45    44    49    1
    46    45    46    1
    47    45    50    1
    48    46    47    1
    49    46    51    1
    50    47    48    1
    51    47    52    1
    52    48    53    1
    53    50    55    1
    54    54    66   ar
    55    54    67   ar
    56    54    55    1
    57    55    69    1
    58    55    56    1
    59    56    57    1
    60    57    58    1
    61    57    68    1
    62    58    59    1
    63    58    65    1
    64    59    60    1
    65    59    69    1
    66    60    61    1
    67    60    70    1
    68    61    71    1
    69    61    62    1
    70    62    72    1
    71    63    65   am
    72    63    64    1
    73    63    73    2
    74    74    85    1
    75    74    75    1
    76    75    76    1
    77    75    82    1
    78    76    77    1
    79    76    83    1
    80    77    78    1
    81    77    84    1
    82    78    79    1
    83    78    85    1
    84    79    86    1
    85    80    82   am
    86    80    87    2
    87    80    81    1
