@<TRIPOS>MOLECULE
2bkj_FMN_1_ligand
   50    52     1     0     0
SMALL
NO_CHARGES


@<TRIPOS>ATOM
     1 N1          -7.0080    -3.3490     9.4170 N.2          1 FMN241   0.0000
     2 C2          -7.5090    -3.7700     8.2010 C.2          1 FMN241   0.0000
     3 O2          -8.5280    -4.4410     8.1030 O.2          1 FMN241   0.0000
     4 N3          -6.7380    -3.4020     7.1130 N.pl3        1 FMN241   0.0000
     5 C4          -5.5260    -2.7190     7.1620 C.2          1 FMN241   0.0000
     6 O4          -4.9430    -2.5090     6.0960 O.2          1 FMN241   0.0000
     7 C4A         -5.1270    -2.3250     8.4960 C.2          1 FMN241   0.0000
     8 N5          -4.0740    -1.4390     8.5320 N.2          1 FMN241   0.0000
     9 C5A         -3.7370    -0.8900     9.7390 C.ar         1 FMN241   0.0000
    10 C6          -2.7750     0.0860     9.7440 C.ar         1 FMN241   0.0000
    11 C7          -2.4690     0.7380    10.9230 C.ar         1 FMN241   0.0000
    12 C7M         -1.5530     1.9810    10.8860 C.3          1 FMN241   0.0000
    13 C8          -3.0750     0.3380    12.1140 C.ar         1 FMN241   0.0000
    14 C8M         -2.7280     1.0010    13.4320 C.3          1 FMN241   0.0000
    15 C9          -4.0030    -0.6620    12.1080 C.ar         1 FMN241   0.0000
    16 C9A         -4.3760    -1.2610    10.9180 C.ar         1 FMN241   0.0000
    17 N10         -5.4030    -2.1940    10.9020 N.pl3        1 FMN241   0.0000
    18 C10         -5.8320    -2.6520     9.6670 C.2          1 FMN241   0.0000
    19 C1'         -6.2650    -2.2200    11.9380 C.3          1 FMN241   0.0000
    20 C2'         -6.4260    -3.5500    12.6860 C.3          1 FMN241   0.0000
    21 O2'         -5.6570    -4.6650    12.2150 O.3          1 FMN241   0.0000
    22 C3'         -6.5880    -3.4020    14.1950 C.3          1 FMN241   0.0000
    23 O3'         -6.0280    -2.2220    14.7850 O.3          1 FMN241   0.0000
    24 C4'         -6.5770    -4.6580    15.0810 C.3          1 FMN241   0.0000
    25 O4'         -5.7180    -5.7400    14.8100 O.3          1 FMN241   0.0000
    26 C5'         -6.7810    -4.4160    16.5330 C.3          1 FMN241   0.0000
    27 O5'         -8.1990    -4.4530    16.6280 O.3          1 FMN241   0.0000
    28 P           -9.1420    -3.2130    16.9190 P.3          1 FMN241   0.0000
    29 O1P         -8.9720    -3.0620    18.3780 O.co2        1 FMN241   0.0000
    30 O2P        -10.4600    -3.7160    16.4740 O.co2        1 FMN241  -1.0000
    31 O3P         -8.6130    -2.0810    16.1320 O.co2        1 FMN241  -1.0000
    32 H1          -7.0832    -3.6495     6.2077 H            1 FMN241   0.0000
    33 H2          -2.2970     0.3250     8.8988 H            1 FMN241   0.0000
    34 H7M1        -1.4306     2.3326    11.8141 H            1 FMN241   0.0000
    35 H7M2        -0.6635     1.7284    10.5052 H            1 FMN241   0.0000
    36 H7M3        -1.9718     2.6868    10.3147 H            1 FMN241   0.0000
    37 H8M1        -3.2610     0.5813    14.1667 H            1 FMN241   0.0000
    38 H8M2        -1.7527     0.8825    13.6181 H            1 FMN241   0.0000
    39 H8M3        -2.9414     1.9766    13.3807 H            1 FMN241   0.0000
    40 H9          -4.4155    -0.9634    12.9677 H            1 FMN241   0.0000
    41 H1'1        -7.1650    -1.9621    11.5865 H            1 FMN241   0.0000
    42 H1'2        -5.9581    -1.5375    12.6013 H            1 FMN241   0.0000
    43 H2'         -7.3500    -3.8187    12.4139 H            1 FMN241   0.0000
    44 H13         -5.4480    -5.2731    12.9809 H            1 FMN241   0.0000
    45 H3'         -7.5597    -3.1703    14.2401 H            1 FMN241   0.0000
    46 H15         -6.7522    -1.6971    15.2323 H            1 FMN241   0.0000
    47 H4'         -7.4595    -5.0605    14.8376 H            1 FMN241   0.0000
    48 H17         -4.8514    -5.6061    15.2906 H            1 FMN241   0.0000
    49 H5'1        -6.4191    -3.5258    16.8097 H            1 FMN241   0.0000
    50 H5'2        -6.3586    -5.1340    17.0862 H            1 FMN241   0.0000
@<TRIPOS>BOND
     1    1    2       1
     2    1   18       2
     3    2    3       2
     4    2    4       1
     5    4    5       1
     6    5    6       2
     7    5    7       1
     8    7    8       2
     9    7   18       1
    10    8    9       1
    11    9   10      ar
    12    9   16      ar
    13   10   11      ar
    14   11   12       1
    15   11   13      ar
    16   13   14       1
    17   13   15      ar
    18   15   16      ar
    19   16   17       1
    20   17   18       1
    21   17   19       1
    22   19   20       1
    23   20   21       1
    24   20   22       1
    25   22   23       1
    26   22   24       1
    27   24   25       1
    28   24   26       1
    29   26   27       1
    30   27   28       1
    31   28   29      ar
    32   28   30      ar
    33   28   31      ar
    34    4   32       1
    35   10   33       1
    36   12   34       1
    37   12   35       1
    38   12   36       1
    39   14   37       1
    40   14   38       1
    41   14   39       1
    42   15   40       1
    43   19   41       1
    44   19   42       1
    45   20   43       1
    46   21   44       1
    47   22   45       1
    48   23   46       1
    49   24   47       1
    50   25   48       1
    51   26   49       1
    52   26   50       1
@<TRIPOS>SUBSTRUCTURE
     1 FMN241      1 GROUP             4 A     FMN     0 **** FMN A 241
