@<TRIPOS>MOLECULE
2pia_FMN_1_ligand
   50    52     1     0     0
SMALL
NO_CHARGES


@<TRIPOS>ATOM
     1 N1          -0.4750    35.8380     8.2710 N.2          1 FMN322   0.0000
     2 C2          -1.2930    36.8560     8.7090 C.2          1 FMN322   0.0000
     3 O2          -2.1920    37.3090     8.0210 O.2          1 FMN322   0.0000
     4 N3          -1.1530    37.4160     9.9740 N.pl3        1 FMN322   0.0000
     5 C4          -0.2010    37.0350    10.8560 C.2          1 FMN322   0.0000
     6 O4          -0.0920    37.5670    11.9070 O.2          1 FMN322   0.0000
     7 C4A          0.7000    35.9510    10.4100 C.2          1 FMN322   0.0000
     8 N5           1.6510    35.5870    11.2080 N.2          1 FMN322   0.0000
     9 C5A          2.4350    34.5580    10.7610 C.ar         1 FMN322   0.0000
    10 C6           3.4920    34.1970    11.6070 C.ar         1 FMN322   0.0000
    11 C7           4.4050    33.2680    11.2170 C.ar         1 FMN322   0.0000
    12 C7M          5.5770    33.0360    12.1190 C.3          1 FMN322   0.0000
    13 C8           4.2090    32.5750     9.9590 C.ar         1 FMN322   0.0000
    14 C8M          5.1500    31.5030     9.5170 C.3          1 FMN322   0.0000
    15 C9           3.1750    32.9030     9.1140 C.ar         1 FMN322   0.0000
    16 C9A          2.2730    33.9150     9.4940 C.ar         1 FMN322   0.0000
    17 N10          1.2280    34.3460     8.6760 N.pl3        1 FMN322   0.0000
    18 C10          0.4720    35.4070     9.0650 C.2          1 FMN322   0.0000
    19 C1'          0.9180    33.6610     7.3970 C.3          1 FMN322   0.0000
    20 C2'         -0.1470    32.5730     7.6170 C.3          1 FMN322   0.0000
    21 O2'          0.3680    31.5390     8.4580 O.3          1 FMN322   0.0000
    22 C3'         -0.5800    31.9590     6.2780 C.3          1 FMN322   0.0000
    23 O3'          0.5650    31.4430     5.5980 O.3          1 FMN322   0.0000
    24 C4'         -1.2840    32.9990     5.4090 C.3          1 FMN322   0.0000
    25 O4'         -2.4700    33.4490     6.0770 O.3          1 FMN322   0.0000
    26 C5'         -1.5490    32.4380     4.0100 C.3          1 FMN322   0.0000
    27 O5'         -2.3490    31.2360     4.0630 O.3          1 FMN322   0.0000
    28 P           -3.3630    30.6930     2.9470 P.3          1 FMN322   0.0000
    29 O1P         -2.2960    30.4420     1.8700 O.co2        1 FMN322   0.0000
    30 O2P         -4.2760    31.7740     2.5480 O.co2        1 FMN322  -1.0000
    31 O3P         -3.9020    29.4220     3.4580 O.co2        1 FMN322  -1.0000
    32 H1          -1.7893    38.1380    10.2458 H            1 FMN322   0.0000
    33 H2           3.5757    34.6267    12.5061 H            1 FMN322   0.0000
    34 H7M1         6.1694    32.3348    11.7222 H            1 FMN322   0.0000
    35 H7M2         6.0914    33.8872    12.2228 H            1 FMN322   0.0000
    36 H7M3         5.2531    32.7310    13.0146 H            1 FMN322   0.0000
    37 H8M1         4.8545    31.1444     8.6315 H            1 FMN322   0.0000
    38 H8M2         6.0714    31.8823     9.4324 H            1 FMN322   0.0000
    39 H8M3         5.1542    30.7644    10.1911 H            1 FMN322   0.0000
    40 H9           3.0651    32.4287     8.2405 H            1 FMN322   0.0000
    41 H1'1         1.7509    33.2393     7.0385 H            1 FMN322   0.0000
    42 H1'2         0.5739    34.3310     6.7392 H            1 FMN322   0.0000
    43 H2'         -0.9445    32.9839     8.0588 H            1 FMN322   0.0000
    44 H13          0.1738    31.7591     9.4139 H            1 FMN322   0.0000
    45 H3'         -1.2140    31.2070     6.4582 H            1 FMN322   0.0000
    46 H15          0.9569    32.1561     5.0167 H            1 FMN322   0.0000
    47 H4'         -0.6708    33.7831     5.3130 H            1 FMN322   0.0000
    48 H17         -2.6607    34.3954     5.8162 H            1 FMN322   0.0000
    49 H5'1        -0.6743    32.2269     3.5737 H            1 FMN322   0.0000
    50 H5'2        -2.0331    33.1267     3.4703 H            1 FMN322   0.0000
@<TRIPOS>BOND
     1    1    2       1
     2    1   18       2
     3    2    3       2
     4    2    4       1
     5    4    5       1
     6    5    6       2
     7    5    7       1
     8    7    8       2
     9    7   18       1
    10    8    9       1
    11    9   10      ar
    12    9   16      ar
    13   10   11      ar
    14   11   12       1
    15   11   13      ar
    16   13   14       1
    17   13   15      ar
    18   15   16      ar
    19   16   17       1
    20   17   18       1
    21   17   19       1
    22   19   20       1
    23   20   21       1
    24   20   22       1
    25   22   23       1
    26   22   24       1
    27   24   25       1
    28   24   26       1
    29   26   27       1
    30   27   28       1
    31   28   29      ar
    32   28   30      ar
    33   28   31      ar
    34    4   32       1
    35   10   33       1
    36   12   34       1
    37   12   35       1
    38   12   36       1
    39   14   37       1
    40   14   38       1
    41   14   39       1
    42   15   40       1
    43   19   41       1
    44   19   42       1
    45   20   43       1
    46   21   44       1
    47   22   45       1
    48   23   46       1
    49   24   47       1
    50   25   48       1
    51   26   49       1
    52   26   50       1
@<TRIPOS>SUBSTRUCTURE
     1 FMN322      1 GROUP             4 A     FMN     0 **** FMN A 322
