@<TRIPOS>MOLECULE
2yiu_SMA_1_ligand
   79    80     1     0     0
SMALL
NO_CHARGES


@<TRIPOS>ATOM
     1 C2           3.5990   -39.4940   -40.1990 C.2          1 SMA502   0.0000
     2 C3           3.1510   -38.8960   -41.3970 C.2          1 SMA502   0.0000
     3 C3M          2.5660   -39.7300   -42.5270 C.3          1 SMA502   0.0000
     4 C4           3.2310   -37.5110   -41.5880 C.2          1 SMA502   0.0000
     5 C4A          3.8100   -36.7450   -40.5900 C.ar         1 SMA502   0.0000
     6 C5           4.0470   -35.3670   -40.7580 C.ar         1 SMA502   0.0000
     7 C5M          4.3530   -33.3520   -42.0850 C.3          1 SMA502   0.0000
     8 C6           4.6470   -34.6990   -39.6860 C.ar         1 SMA502   0.0000
     9 C7           5.0220   -35.3360   -38.5150 C.ar         1 SMA502   0.0000
    10 C7M          5.7730   -33.1980   -37.5220 C.3          1 SMA502   0.0000
    11 C8           4.7830   -36.6870   -38.3730 C.ar         1 SMA502   0.0000
    12 C8A          4.1980   -37.3790   -39.4150 C.ar         1 SMA502   0.0000
    13 C9           3.6570   -41.0010   -39.8190 C.3          1 SMA502   0.0000
    14 C10          2.3540   -41.6460   -39.3720 C.3          1 SMA502   0.0000
    15 C11          2.5890   -42.9780   -38.5740 C.3          1 SMA502   0.0000
    16 C14         -0.9770   -43.9330   -37.0680 C.3          1 SMA502   0.0000
    17 C15         -1.9830   -43.0930   -36.6000 C.2          1 SMA502   0.0000
    18 C16         -2.3660   -43.0760   -35.2590 C.2          1 SMA502   0.0000
    19 C17         -3.3440   -42.1800   -34.8320 C.2          1 SMA502   0.0000
    20 C18         -3.7530   -42.1510   -33.5010 C.2          1 SMA502   0.0000
    21 C19         -4.7300   -41.2580   -33.0480 C.2          1 SMA502   0.0000
    22 C20         -5.0970   -41.2760   -31.7290 C.2          1 SMA502   0.0000
    23 C21         -6.1780   -40.2890   -31.3180 C.3          1 SMA502   0.0000
    24 C22          3.4530   -44.0220   -39.2730 C.3          1 SMA502   0.0000
    25 C23          0.4130   -45.3460   -39.6080 C.3          1 SMA502   0.0000
    26 C24          0.7610   -42.5050   -36.0350 C.3          1 SMA502   0.0000
    27 C25         -1.4910   -46.0120   -36.1170 C.3          1 SMA502   0.0000
    28 C26         -5.4570   -40.2470   -33.9380 C.3          1 SMA502   0.0000
    29 O1           4.0790   -38.6940   -39.2220 O.2          1 SMA502   0.0000
    30 O4           2.8420   -36.9680   -42.6240 O.2          1 SMA502   0.0000
    31 O5           3.6870   -34.6520   -41.9230 O.3          1 SMA502   0.0000
    32 O7           5.6200   -34.6760   -37.4710 O.3          1 SMA502   0.0000
    33 O8           5.1750   -37.3500   -37.2440 O.3          1 SMA502   0.0000
    34 O12          0.7430   -43.9440   -39.5930 O.3          1 SMA502   0.0000
    35 O14         -0.4990   -44.9720   -36.1340 O.3          1 SMA502   0.0000
    36 C12          1.2580   -43.6810   -38.2520 C.3          1 SMA502   0.0000
    37 C13          0.1920   -42.9900   -37.3530 C.3          1 SMA502   0.0000
    38 H3M1         2.3083   -39.1306   -43.2848 H            1 SMA502   0.0000
    39 H3M2         3.2479   -40.3904   -42.8414 H            1 SMA502   0.0000
    40 H3M3         1.7573   -40.2172   -42.1975 H            1 SMA502   0.0000
    41 H5M1         4.0397   -32.9201   -42.9307 H            1 SMA502   0.0000
    42 H5M2         4.1296   -32.7639   -41.3077 H            1 SMA502   0.0000
    43 H5M3         5.3429   -33.4875   -42.1268 H            1 SMA502   0.0000
    44 H7           4.8129   -33.7163   -39.7688 H            1 SMA502   0.0000
    45 H7M1         6.2252   -32.8807   -36.6884 H            1 SMA502   0.0000
    46 H7M2         6.3254   -32.9473   -38.3170 H            1 SMA502   0.0000
    47 H7M3         4.8713   -32.7719   -37.5949 H            1 SMA502   0.0000
    48 H11          4.3151   -41.0997   -39.0726 H            1 SMA502   0.0000
    49 H12          3.9837   -41.5026   -40.6200 H            1 SMA502   0.0000
    50 H13          1.8021   -41.8492   -40.1808 H            1 SMA502   0.0000
    51 H14          1.8618   -41.0027   -38.7855 H            1 SMA502   0.0000
    52 H15          3.0303   -42.7437   -37.7078 H            1 SMA502   0.0000
    53 H16         -1.2729   -44.3632   -37.9209 H            1 SMA502   0.0000
    54 H17         -2.4450   -42.4835   -37.2443 H            1 SMA502   0.0000
    55 H18         -1.9408   -43.7038   -34.6071 H            1 SMA502   0.0000
    56 H19         -3.7573   -41.5500   -35.4894 H            1 SMA502   0.0000
    57 H20         -3.3366   -42.7864   -32.8508 H            1 SMA502   0.0000
    58 H21         -4.6775   -41.9032   -31.0727 H            1 SMA502   0.0000
    59 H22         -6.3661   -40.3884   -30.3409 H            1 SMA502   0.0000
    60 H23         -5.8669   -39.3571   -31.5045 H            1 SMA502   0.0000
    61 H24         -7.0121   -40.4723   -31.8383 H            1 SMA502   0.0000
    62 H25          3.5420   -44.8275   -38.6871 H            1 SMA502   0.0000
    63 H26          3.0246   -44.2845   -40.1376 H            1 SMA502   0.0000
    64 H27          4.3590   -43.6387   -39.4527 H            1 SMA502   0.0000
    65 H28          0.0513   -45.5937   -40.5068 H            1 SMA502   0.0000
    66 H29          1.2347   -45.8839   -39.4196 H            1 SMA502   0.0000
    67 H30         -0.2761   -45.5338   -38.9081 H            1 SMA502   0.0000
    68 H31          1.5272   -41.8867   -36.2101 H            1 SMA502   0.0000
    69 H32          0.0514   -42.0200   -35.5239 H            1 SMA502   0.0000
    70 H33          1.0799   -43.2882   -35.5012 H            1 SMA502   0.0000
    71 H34         -1.2023   -46.7379   -35.4927 H            1 SMA502   0.0000
    72 H35         -2.3642   -45.6347   -35.8085 H            1 SMA502   0.0000
    73 H36         -1.5967   -46.3869   -37.0380 H            1 SMA502   0.0000
    74 H37         -6.1067   -39.7239   -33.3864 H            1 SMA502   0.0000
    75 H38         -4.7907   -39.6242   -34.3481 H            1 SMA502   0.0000
    76 H39         -5.9486   -40.7323   -34.6610 H            1 SMA502   0.0000
    77 H40          5.6404   -36.8555   -36.5099 H            1 SMA502   0.0000
    78 H41          1.4768   -44.5633   -37.8353 H            1 SMA502   0.0000
    79 H42         -0.1633   -42.1968   -37.8476 H            1 SMA502   0.0000
@<TRIPOS>BOND
     1    1    2       2
     2    1   13       1
     3    1   29       1
     4    2    3       1
     5    2    4       1
     6    4    5       1
     7    4   30       2
     8    5    6      ar
     9    5   12      ar
    10    6    8      ar
    11    6   31       1
    12    7   31       1
    13    8    9      ar
    14    9   11      ar
    15    9   32       1
    16   10   32       1
    17   11   12      ar
    18   11   33       1
    19   12   29       1
    20   13   14       1
    21   14   15       1
    22   15   24       1
    23   15   36       1
    24   16   17       1
    25   16   35       1
    26   16   37       1
    27   17   18       2
    28   18   19       1
    29   19   20       2
    30   20   21       1
    31   21   22       2
    32   21   28       1
    33   22   23       1
    34   25   34       1
    35   26   37       1
    36   27   35       1
    37   34   36       1
    38   36   37       1
    39    3   38       1
    40    3   39       1
    41    3   40       1
    42    7   41       1
    43    7   42       1
    44    7   43       1
    45    8   44       1
    46   10   45       1
    47   10   46       1
    48   10   47       1
    49   13   48       1
    50   13   49       1
    51   14   50       1
    52   14   51       1
    53   15   52       1
    54   16   53       1
    55   17   54       1
    56   18   55       1
    57   19   56       1
    58   20   57       1
    59   22   58       1
    60   23   59       1
    61   23   60       1
    62   23   61       1
    63   24   62       1
    64   24   63       1
    65   24   64       1
    66   25   65       1
    67   25   66       1
    68   25   67       1
    69   26   68       1
    70   26   69       1
    71   26   70       1
    72   27   71       1
    73   27   72       1
    74   27   73       1
    75   28   74       1
    76   28   75       1
    77   28   76       1
    78   33   77       1
    79   36   78       1
    80   37   79       1
@<TRIPOS>SUBSTRUCTURE
     1 SMA502      1 GROUP             4 A     SMA     0 **** SMA A 502
