@<TRIPOS>MOLECULE
1u3g_THF_1_ligand
   60    62     1     0     0
SMALL
NO_CHARGES


@<TRIPOS>ATOM
     1 N1          13.0870    23.5990    15.9920 N.2          1 THF501   0.0000
     2 C2          13.2770    22.4760    15.2990 C.2          1 THF501   0.0000
     3 NA2         14.2570    22.5350    14.2070 N.pl3        1 THF501   0.0000
     4 N3          12.8130    21.3800    15.3750 N.am         1 THF501   0.0000
     5 C4          11.7510    21.3060    16.2440 C.2          1 THF501   0.0000
     6 O4          10.6660    20.4810    15.9960 O.2          1 THF501   0.0000
     7 C4A         11.7980    22.1290    17.4390 C.3          1 THF501   0.0000
     8 N5          10.6700    22.3990    18.2620 N.3          1 THF501   0.0000
     9 C6          10.7770    23.3960    19.4420 C.3          1 THF501   0.0000
    10 C7          11.4680    24.6330    18.9500 C.3          1 THF501   0.0000
    11 N8          11.7800    24.4690    17.6510 N.4          1 THF501   1.0000
    12 C8A         12.5240    23.3890    17.2130 C.3          1 THF501   0.0000
    13 C9          11.5250    22.8500    20.6550 C.3          1 THF501   0.0000
    14 N10         11.5580    21.3760    20.6540 N.pl3        1 THF501   0.0000
    15 C11         13.2840    18.9100    23.7420 C.ar         1 THF501   0.0000
    16 C12         12.6420    18.3600    22.5700 C.ar         1 THF501   0.0000
    17 C13         12.0820    19.1660    21.5370 C.ar         1 THF501   0.0000
    18 C14         12.1680    20.5720    21.7060 C.ar         1 THF501   0.0000
    19 C15         12.8020    21.1660    22.8590 C.ar         1 THF501   0.0000
    20 C16         13.3650    20.3420    23.8840 C.ar         1 THF501   0.0000
    21 C           13.8090    17.9540    24.7190 C.2          1 THF501   0.0000
    22 O           13.0100    17.4050    25.4980 O.2          1 THF501   0.0000
    23 N           15.1430    17.6650    24.8050 N.am         1 THF501   0.0000
    24 CA          15.6610    16.5090    25.5780 C.3          1 THF501   0.0000
    25 CB          16.7910    15.9780    24.8000 C.3          1 THF501   0.0000
    26 CG          16.8640    14.4520    24.9020 C.3          1 THF501   0.0000
    27 CD          17.9470    13.8420    25.8370 C.2          1 THF501   0.0000
    28 OE1         17.5810    13.2840    26.8940 O.co2        1 THF501   0.0000
    29 OE2         19.1530    13.9150    25.5280 O.co2        1 THF501  -1.0000
    30 CT          15.9770    16.7540    27.0980 C.2          1 THF501   0.0000
    31 O1          17.0340    17.3510    27.4050 O.co2        1 THF501   0.0000
    32 O2          15.1850    16.3580    27.9760 O.co2        1 THF501  -1.0000
    33 CP1          9.3210    21.8080    18.0660 C.3          1 THF501   0.0000
    34 O3           8.6870    22.0090    16.7800 O.3          1 THF501   0.0000
    35 HA21        14.4393    21.7218    13.6543 H            1 THF501   0.0000
    36 HA22        14.7421    23.3884    14.0161 H            1 THF501   0.0000
    37 H4A         12.4076    21.6185    18.0454 H            1 THF501   0.0000
    38 H4           9.8519    23.6451    19.7285 H            1 THF501   0.0000
    39 H5          12.3027    24.7846    19.4794 H            1 THF501   0.0000
    40 H6          10.8604    25.4206    19.0527 H            1 THF501   0.0000
    41 H7          12.2849    25.2877    17.3776 H            1 THF501   0.0000
    42 H8A         13.2998    23.3474    17.8427 H            1 THF501   0.0000
    43 H9          11.0672    23.1638    21.4868 H            1 THF501   0.0000
    44 H10         12.4633    23.1956    20.6403 H            1 THF501   0.0000
    45 H11         11.1357    20.8980    19.8838 H            1 THF501   0.0000
    46 H12         12.5881    17.3656    22.4796 H            1 THF501   0.0000
    47 H13         11.6493    18.7603    20.7319 H            1 THF501   0.0000
    48 H14         12.8480    22.1615    22.9418 H            1 THF501   0.0000
    49 H15         13.8058    20.7513    24.6829 H            1 THF501   0.0000
    50 H16         15.7945    18.2555    24.3286 H            1 THF501   0.0000
    51 HA          14.9470    15.8095    25.5490 H            1 THF501   0.0000
    52 HB1         17.6415    16.3696    25.1511 H            1 THF501   0.0000
    53 HB2         16.6764    16.2358    23.8406 H            1 THF501   0.0000
    54 HG1         17.0305    14.0986    23.9815 H            1 THF501   0.0000
    55 HG2         15.9741    14.1312    25.2263 H            1 THF501   0.0000
    56 HP11         8.7183    22.1983    18.7620 H            1 THF501   0.0000
    57 HP12         9.4016    20.8217    18.2100 H            1 THF501   0.0000
    58 H24          9.2578    21.6120    16.0613 H            1 THF501   0.0000
    59 H25         13.1605    20.5964    14.8600 H            1 THF501   0.0000
    60 H26         10.9120    24.4318    17.1559 H            1 THF501   0.0000
@<TRIPOS>BOND
     1    1    2       2
     2    1   12       1
     3    2    3       1
     4    2    4       1
     5    4    5      am
     6    5    6       2
     7    5    7       1
     8    7    8       1
     9    7   12       1
    10    8    9       1
    11    8   33       1
    12    9   10       1
    13    9   13       1
    14   10   11       1
    15   11   12       1
    16   13   14       1
    17   14   18       1
    18   15   16      ar
    19   15   20      ar
    20   15   21       1
    21   16   17      ar
    22   17   18      ar
    23   18   19      ar
    24   19   20      ar
    25   21   22       2
    26   21   23      am
    27   23   24       1
    28   24   25       1
    29   24   30       1
    30   25   26       1
    31   26   27       1
    32   27   28      ar
    33   27   29      ar
    34   30   31      ar
    35   30   32      ar
    36   33   34       1
    37   34   58       1
    38    3   35       1
    39    3   36       1
    40    7   37       1
    41    9   38       1
    42   10   39       1
    43   10   40       1
    44   11   41       1
    45   12   42       1
    46   13   43       1
    47   13   44       1
    48   14   45       1
    49   16   46       1
    50   17   47       1
    51   19   48       1
    52   20   49       1
    53   23   50       1
    54   24   51       1
    55   25   52       1
    56   25   53       1
    57   26   54       1
    58   26   55       1
    59   11   60       1
    60    4   59       1
    61   33   56       1
    62   33   57       1
@<TRIPOS>SUBSTRUCTURE
     1 THF501      1 GROUP             4 A     THF     0 **** THF A 501
