@<TRIPOS>MOLECULE
1xb0_ALA_VAL_PRO_ILE_5_ligand
   62    62     4     0     0
SMALL
NO_CHARGES


@<TRIPOS>ATOM
     1 N          131.1150   101.7750    -0.2140 N.4          1 ALA901   1.0000
     2 CA         131.3200   100.5230     0.5270 C.3          1 ALA901   0.0000
     3 C          130.7640    99.4260    -0.3560 C.2          1 ALA901   0.0000
     4 O          130.3910    99.7000    -1.4860 O.2          1 ALA901   0.0000
     5 CB         130.5770   100.5350     1.8600 C.3          1 ALA901   0.0000
     6 H1         131.6134   101.7352    -1.0800 H            1 ALA901   0.0000
     7 H2         130.1395   101.8986    -0.3962 H            1 ALA901   0.0000
     8 HA         132.2966   100.3742     0.6820 H            1 ALA901   0.0000
     9 HB1        130.7365    99.6714     2.3383 H            1 ALA901   0.0000
    10 HB2        130.9103   101.2931     2.4206 H            1 ALA901   0.0000
    11 HB3        129.5973   100.6484     1.6945 H            1 ALA901   0.0000
    12 N          130.6640    98.2060     0.1620 N.am         2 VAL902   0.0000
    13 CA         130.1870    97.0910    -0.6520 C.3          2 VAL902   0.0000
    14 C          129.1410    96.1650    -0.0130 C.2          2 VAL902   0.0000
    15 O          129.1340    95.9500     1.1940 O.2          2 VAL902   0.0000
    16 CB         131.4210    96.2700    -1.1390 C.3          2 VAL902   0.0000
    17 CG1        131.0840    94.8090    -1.2840 C.3          2 VAL902   0.0000
    18 CG2        131.9180    96.8460    -2.4580 C.3          2 VAL902   0.0000
    19 H7         130.9174    98.0503     1.1167 H            2 VAL902   0.0000
    20 H8         129.7635    97.4876    -1.4665 H            2 VAL902   0.0000
    21 HB         132.1493    96.3607    -0.4598 H            2 VAL902   0.0000
    22 HG11       131.8922    94.3099    -1.5966 H            2 VAL902   0.0000
    23 HG12       130.7890    94.4457    -0.4003 H            2 VAL902   0.0000
    24 HG13       130.3471    94.7015    -1.9514 H            2 VAL902   0.0000
    25 HG21       132.7092    96.3221    -2.7734 H            2 VAL902   0.0000
    26 HG22       131.1892    96.7927    -3.1407 H            2 VAL902   0.0000
    27 HG23       132.1819    97.8015    -2.3261 H            2 VAL902   0.0000
    28 N          128.2350    95.6040    -0.8300 N.am         3 PRO903   0.0000
    29 CA         127.2110    94.7120    -0.2770 C.3          3 PRO903   0.0000
    30 C          127.7300    93.3480     0.1600 C.2          3 PRO903   0.0000
    31 O          128.7130    92.8380    -0.3740 O.2          3 PRO903   0.0000
    32 CB         126.1770    94.6260    -1.4020 C.3          3 PRO903   0.0000
    33 CG         126.9810    94.8420    -2.6260 C.3          3 PRO903   0.0000
    34 CD         127.9440    95.9330    -2.2340 C.3          3 PRO903   0.0000
    35 H16        126.7889    95.1603     0.5109 H            3 PRO903   0.0000
    36 H17        125.7381    93.7276    -1.4164 H            3 PRO903   0.0000
    37 H18        125.4799    95.3360    -1.3021 H            3 PRO903   0.0000
    38 HG1        127.4712    94.0089    -2.8821 H            3 PRO903   0.0000
    39 HG2        126.4011    95.1346    -3.3863 H            3 PRO903   0.0000
    40 HD1        128.7729    95.9024    -2.7925 H            3 PRO903   0.0000
    41 HD2        127.5211    96.8356    -2.3144 H            3 PRO903   0.0000
    42 N          127.0520    92.7690     1.1440 N.am         4 ILE904   0.0000
    43 CA         127.4180    91.4730     1.6930 C.3          4 ILE904   0.0000
    44 C          126.6950    90.3570     0.9440 C.2          4 ILE904   0.0000
    45 O          125.5330    90.0630     1.2290 O.2          4 ILE904   0.0000
    46 CB         127.0400    91.3950     3.1900 C.3          4 ILE904   0.0000
    47 CG1        127.7430    92.5180     3.9610 C.3          4 ILE904   0.0000
    48 CG2        127.4090    90.0370     3.7510 C.3          4 ILE904   0.0000
    49 CD1        127.2680    92.6860     5.3940 C.3          4 ILE904   0.0000
    50 H23        126.2574    93.2434     1.5230 H            4 ILE904   0.0000
    51 H24        128.4051    91.3445     1.5979 H            4 ILE904   0.0000
    52 H25        127.1681    89.8605     0.2162 H            4 ILE904   0.0000
    53 H26        126.0514    91.5184     3.2766 H            4 ILE904   0.0000
    54 H27        127.5842    93.3778     3.4758 H            4 ILE904   0.0000
    55 H28        128.7232    92.3205     3.9772 H            4 ILE904   0.0000
    56 H29        127.1605    89.9974     4.7188 H            4 ILE904   0.0000
    57 H30        126.9164    89.3247     3.2510 H            4 ILE904   0.0000
    58 H31        128.3937    89.8924     3.6535 H            4 ILE904   0.0000
    59 HD11       127.7717    93.4338     5.8266 H            4 ILE904   0.0000
    60 HD12       126.2903    92.8961     5.3986 H            4 ILE904   0.0000
    61 HD13       127.4293    91.8388     5.9001 H            4 ILE904   0.0000
    62 H35        131.4525   102.5433     0.3299 H            4 ILE904   0.0000
@<TRIPOS>BOND
     1    1    2       1
     2    2    5       1
     3    2    3       1
     4    3    4       2
     5    1    6       1
     6    1    7       1
     7    2    8       1
     8    3   12      am
     9    5    9       1
    10    5   10       1
    11    5   11       1
    12   12   13       1
    13   13   16       1
    14   13   14       1
    15   16   17       1
    16   16   18       1
    17   14   15       2
    18   18   27       1
    19   12   19       1
    20   13   20       1
    21   14   28      am
    22   16   21       1
    23   17   22       1
    24   17   23       1
    25   17   24       1
    26   18   25       1
    27   18   26       1
    28   28   34       1
    29   28   29       1
    30   34   33       1
    31   33   32       1
    32   32   29       1
    33   29   30       1
    34   30   31       2
    35   34   41       1
    36   29   35       1
    37   30   42      am
    38   32   36       1
    39   32   37       1
    40   33   38       1
    41   33   39       1
    42   34   40       1
    43   42   43       1
    44   43   46       1
    45   43   44       1
    46   46   48       1
    47   46   47       1
    48   47   49       1
    49   44   45       2
    50   49   61       1
    51   42   50       1
    52   43   51       1
    53   44   52       1
    54   46   53       1
    55   47   54       1
    56   47   55       1
    57   48   56       1
    58   48   57       1
    59   48   58       1
    60   49   59       1
    61   49   60       1
    62    1   62       1
@<TRIPOS>SUBSTRUCTURE
     1 ALA901      1 RESIDUE           4 K     ALA     0 **** ALA K 901
     2 VAL902     12 RESIDUE           4 K     VAL     0 **** VAL K 902
     3 PRO903     28 RESIDUE           4 K     PRO     0 **** PRO K 903
     4 ILE904     42 RESIDUE           4 K     ILE     0 **** ILE K 904
