@<TRIPOS>MOLECULE
1vl8_NAP_2_ligand
   73    77     1     0     0
SMALL
NO_CHARGES


@<TRIPOS>ATOM
     1 PA          39.1810    42.8560    22.6360 P.3          1 NAP274   0.0000
     2 O1A         38.4890    42.4490    23.8760 O.co2        1 NAP274   0.0000
     3 O2A         40.6560    43.0420    22.8360 O.co2        1 NAP274  -1.0000
     4 O5B         38.5720    44.2340    21.9930 O.3          1 NAP274   0.0000
     5 C5B         37.2010    44.5200    21.8780 C.3          1 NAP274   0.0000
     6 C4B         37.0440    46.0250    21.7680 C.3          1 NAP274   0.0000
     7 O4B         35.6580    46.3390    21.7340 O.3          1 NAP274   0.0000
     8 C3B         37.6650    46.8220    22.9410 C.3          1 NAP274   0.0000
     9 O3B         38.2160    48.0860    22.5360 O.3          1 NAP274   0.0000
    10 C2B         36.4460    47.0470    23.8190 C.3          1 NAP274   0.0000
    11 O2B         36.5020    48.1790    24.6390 O.3          1 NAP274   0.0000
    12 C1B         35.3690    47.2520    22.7690 C.3          1 NAP274   0.0000
    13 N9A         33.9820    47.0180    23.1330 N.pl3        1 NAP274   0.0000
    14 C8A         33.3340    45.8840    23.5860 C.2          1 NAP274   0.0000
    15 N7A         32.0150    46.1850    23.7030 N.2          1 NAP274   0.0000
    16 C5A         31.8060    47.4820    23.3190 C.ar         1 NAP274   0.0000
    17 C6A         30.6800    48.3170    23.2520 C.ar         1 NAP274   0.0000
    18 N6A         29.4560    47.9550    23.7080 N.pl3        1 NAP274   0.0000
    19 N1A         30.8890    49.6090    22.8000 N.ar         1 NAP274   0.0000
    20 C2A         32.1370    50.0830    22.4450 C.ar         1 NAP274   0.0000
    21 N3A         33.2640    49.2670    22.5310 N.ar         1 NAP274   0.0000
    22 C4A         33.0660    48.0020    22.9550 C.ar         1 NAP274   0.0000
    23 O3          38.8620    41.6620    21.5450 O.3          1 NAP274   0.0000
    24 PN          39.2920    41.5670    19.9780 P.3          1 NAP274   0.0000
    25 O1N         39.6090    40.1300    19.7550 O.co2        1 NAP274   0.0000
    26 O2N         40.2990    42.6330    19.6490 O.co2        1 NAP274  -1.0000
    27 O5D         37.8650    41.9910    19.2860 O.3          1 NAP274   0.0000
    28 C5D         37.6820    43.0160    18.3000 C.3          1 NAP274   0.0000
    29 C4D         36.6720    42.5340    17.2540 C.3          1 NAP274   0.0000
    30 O4D         37.2980    41.4100    16.6340 O.3          1 NAP274   0.0000
    31 C3D         35.2780    42.0450    17.7380 C.3          1 NAP274   0.0000
    32 O3D         34.2820    42.3940    16.7830 O.3          1 NAP274   0.0000
    33 C2D         35.4640    40.5130    17.7560 C.3          1 NAP274   0.0000
    34 O2D         34.2930    39.7510    17.7120 O.3          1 NAP274   0.0000
    35 C1D         36.3400    40.3440    16.5320 C.3          1 NAP274   0.0000
    36 N1N         37.0450    39.0740    16.3100 N.ar         1 NAP274   1.0000
    37 C2N         38.0580    38.6460    17.1620 C.ar         1 NAP274   0.0000
    38 C3N         38.7180    37.4450    16.8800 C.ar         1 NAP274   0.0000
    39 C7N         39.9200    36.9720    17.6750 C.2          1 NAP274   0.0000
    40 O7N         40.4200    35.7260    17.3670 O.2          1 NAP274   0.0000
    41 N7N         40.4400    37.7300    18.6290 N.am         1 NAP274   0.0000
    42 C4N         38.3400    36.7040    15.7590 C.ar         1 NAP274   0.0000
    43 C5N         37.3100    37.1610    14.9290 C.ar         1 NAP274   0.0000
    44 C6N         36.6700    38.3660    15.2140 C.ar         1 NAP274   0.0000
    45 P2B         35.6520    48.2290    26.0350 P.3          1 NAP274   0.0000
    46 O1X         36.2730    49.2540    26.9990 O.co2        1 NAP274   0.0000
    47 O2X         35.6140    46.9220    26.7620 O.co2        1 NAP274  -1.0000
    48 O3X         34.2720    48.7150    25.6440 O.co2        1 NAP274  -1.0000
    49 H5B1        36.7157    44.1863    22.6862 H            1 NAP274   0.0000
    50 H5B2        36.8298    44.0794    21.0607 H            1 NAP274   0.0000
    51 H4B         37.4641    46.3306    20.9135 H            1 NAP274   0.0000
    52 H3B         38.3504    46.2731    23.4194 H            1 NAP274   0.0000
    53 H5          38.6006    48.5526    23.3325 H            1 NAP274   0.0000
    54 H2B         36.2522    46.2308    24.3633 H            1 NAP274   0.0000
    55 H1B         35.4506    48.1804    22.4064 H            1 NAP274   0.0000
    56 H8A         33.7593    45.0023    23.7904 H            1 NAP274   0.0000
    57 H6A1        28.6872    48.5904    23.6351 H            1 NAP274   0.0000
    58 H6A2        29.3217    47.0526    24.1174 H            1 NAP274   0.0000
    59 H2A         32.2333    51.0244    22.1219 H            1 NAP274   0.0000
    60 H5D1        38.5560    43.2123    17.8555 H            1 NAP274   0.0000
    61 H5D2        37.3379    43.8456    18.7398 H            1 NAP274   0.0000
    62 H4D         36.5446    43.2526    16.5704 H            1 NAP274   0.0000
    63 H3D         35.0579    42.4002    18.6465 H            1 NAP274   0.0000
    64 H16         34.6877    42.4107    15.8692 H            1 NAP274   0.0000
    65 H2D         35.9878    40.2582    18.5689 H            1 NAP274   0.0000
    66 H18         33.7229    39.9699    18.5039 H            1 NAP274   0.0000
    67 H1D         35.7737    40.5212    15.7270 H            1 NAP274   0.0000
    68 H2N         38.3105    39.1882    17.9634 H            1 NAP274   0.0000
    69 H7N1        41.2326    37.4083    19.1470 H            1 NAP274   0.0000
    70 H7N2        40.0399    38.6239    18.8311 H            1 NAP274   0.0000
    71 H4N         38.8062    35.8447    15.5485 H            1 NAP274   0.0000
    72 H5N         37.0335    36.6236    14.1323 H            1 NAP274   0.0000
    73 H6N         35.9425    38.7053    14.6176 H            1 NAP274   0.0000
@<TRIPOS>BOND
     1    1    2      ar
     2    1    3      ar
     3    1    4       1
     4    1   23       1
     5    4    5       1
     6    5    6       1
     7    6    7       1
     8    6    8       1
     9    7   12       1
    10    8    9       1
    11    8   10       1
    12   10   11       1
    13   10   12       1
    14   11   45       1
    15   12   13       1
    16   13   14       1
    17   13   22       1
    18   14   15       2
    19   15   16       1
    20   16   17      ar
    21   16   22      ar
    22   17   18       1
    23   17   19      ar
    24   19   20      ar
    25   20   21      ar
    26   21   22      ar
    27   23   24       1
    28   24   25      ar
    29   24   26      ar
    30   24   27       1
    31   27   28       1
    32   28   29       1
    33   29   30       1
    34   29   31       1
    35   30   35       1
    36   31   32       1
    37   31   33       1
    38   33   34       1
    39   33   35       1
    40   35   36       1
    41   36   37      ar
    42   36   44      ar
    43   37   38      ar
    44   38   39       1
    45   38   42      ar
    46   39   40       2
    47   39   41      am
    48   42   43      ar
    49   43   44      ar
    50   45   46      ar
    51   45   47      ar
    52   45   48      ar
    53   43   72       1
    54    5   49       1
    55    5   50       1
    56    6   51       1
    57    8   52       1
    58    9   53       1
    59   10   54       1
    60   12   55       1
    61   14   56       1
    62   18   57       1
    63   18   58       1
    64   20   59       1
    65   44   73       1
    66   28   60       1
    67   28   61       1
    68   29   62       1
    69   31   63       1
    70   32   64       1
    71   33   65       1
    72   34   66       1
    73   35   67       1
    74   37   68       1
    75   41   69       1
    76   41   70       1
    77   42   71       1
@<TRIPOS>SUBSTRUCTURE
     1 NAP274      1 GROUP             4 B     NAP     0 **** NAP B 274
