@<TRIPOS>MOLECULE
./coach420/1fjs/ligand.pdb
 38 38 0 0 0
SMALL
GASTEIGER

@<TRIPOS>ATOM
      1 CA         13.0150   31.6880   29.2620 Ca    507  CA507       0.0000
      2  F1         4.5580   10.4970   23.2650 F     500  Z34500      0.0000
      3  C2         4.7310    8.9980   21.4340 C.3   500  Z34500      0.0000
      4  C3         5.4490    7.9160   20.8570 C.2   500  Z34500      0.0000
      5  F2         5.1090    7.4180   19.7160 F     500  Z34500      0.0000
      6  C4         6.5520    7.3730   21.5290 C.2   500  Z34500      0.0000
      7  N5         6.9080    7.8760   22.6980 N.2   500  Z34500      0.0000
      8  C6         6.2790    8.8930   23.3080 C.2   500  Z34500      0.0000
      9  O11        8.7690   10.6520   23.1460 O.3   500  Z34500      0.0000
     10  O1         6.7270    9.3140   24.4840 O.3   500  Z34500      0.0000
     11  C11        7.9970    9.3070   24.8900 C.ar  500  Z34500      0.0000
     12  C12        8.2880    8.5680   26.0390 C.ar  500  Z34500      0.0000
     13  C13        9.6040    8.4850   26.5530 C.ar  500  Z34500      0.0000
     14  C14       10.6400    9.1830   25.8600 C.ar  500  Z34500      0.0000
     15  C15       10.3510    9.9210   24.7000 C.ar  500  Z34500      0.0000
     16  C16        9.0240    9.9810   24.2100 C.ar  500  Z34500      0.0000
     17  C17        9.8480    7.7430   27.7040 C.2   500  Z34500      0.0000
     18  N11        8.8450    7.1710   28.4040 N.pl3 500  Z34500      0.5000
     19  N12       11.0680    7.5150   28.1710 N.pl3 500  Z34500      0.5000
     20  O2         7.2120    6.3890   20.9760 O.3   500  Z34500      0.0000
     21  C21        6.9160    5.1320   20.6630 C.ar  500  Z34500      0.0000
     22  C22        6.0020    4.4760   21.5340 C.ar  500  Z34500      0.0000
     23  C23        5.6300    3.1400   21.2940 C.ar  500  Z34500      0.0000
     24  C24        6.1770    2.4660   20.1900 C.ar  500  Z34500      0.0000
     25  C25        7.0910    3.1210   19.3150 C.ar  500  Z34500      0.0000
     26  C26        7.4470    4.4460   19.5700 C.ar  500  Z34500      0.0000
     27  C27        7.6220    2.4620   18.2090 C.ar  500  Z34500      0.0000
     28  N21        8.7210    1.6960   18.1090 N.ar  500  Z34500      0.0000
     29  C30        9.6460    1.3530   19.1300 C.3   500  Z34500      0.0000
     30  N22        7.0060    2.5470   17.0210 N.ar  500  Z34500      0.0000
     31  C28        8.8780    1.2220   16.7790 C.ar  500  Z34500      0.0000
     32  C29        7.6770    1.8230   16.0210 C.ar  500  Z34500      0.0000
     33  N31        3.6490    9.5560   20.8000 N.3   500  Z34500      0.0000
     34  C32        2.2900    9.1450   21.1650 C.3   500  Z34500      0.0000
     35  C33        1.9080    9.2410   22.6240 C.2   500  Z34500      0.0000
     36  O34        1.3480   10.2660   23.1250 O.co2 500  Z34500      0.0000
     37  O35        2.1520    8.1850   23.4590 O.co2 500  Z34500      0.0000
     38  C36        3.8580   10.5430   19.7630 C.3   500  Z34500      0.0000
@<TRIPOS>BOND
     1     3    33    1
     2     3     4    1
     3     4     5    1
     4     4     6    2
     5     6    20    1
     6     6     7    1
     7     7     8    2
     8     8    10    1
     9     9    16    1
    10    10    11    1
    11    11    16   ar
    12    11    12   ar
    13    12    13   ar
    14    13    14   ar
    15    13    17    1
    16    14    15   ar
    17    15    16   ar
    18    17    19    2
    19    17    18    1
    20    20    21    1
    21    21    26   ar
    22    21    22   ar
    23    22    23   ar
    24    23    24   ar
    25    24    25   ar
    26    25    27    1
    27    25    26   ar
    28    27    30   ar
    29    27    28   ar
    30    28    31   ar
    31    28    29    1
    32    30    32   ar
    33    31    32   ar
    34    33    38    1
    35    33    34    1
    36    34    35    1
    37    35    36   ar
    38    35    37   ar
