@<TRIPOS>MOLECULE
2y3p_SM8_1_ligand
  107   114     1     0     0
SMALL
NO_CHARGES


@<TRIPOS>ATOM
     1 N4         -15.7270    45.1370    32.6520 N.am         1 SM8901   0.0000
     2 CL4        -21.7880    45.4590    34.9500 Cl           1 SM8901   0.0000
     3 C1A         -1.8770    52.3210    27.2830 C.ar         1 SM8901   0.0000
     4 O1A         -2.5840    52.6090    29.5510 O.3          1 SM8901  -1.0000
     5 C1B         -2.0240    53.1050    28.4120 C.ar         1 SM8901   0.0000
     6 O1B         -2.7000    54.6480    30.5580 O.3          1 SM8901   0.0000
     7 C1C         -1.5960    54.4160    28.3910 C.ar         1 SM8901   0.0000
     8 O1C         -1.3860    59.0120    26.0880 O.2          1 SM8901   0.0000
     9 C1D         -1.7740    55.2040    29.6230 C.3          1 SM8901   0.0000
    10 O1D          0.6890    59.0060    30.2630 O.3          1 SM8901   0.0000
    11 C1E         -1.7500    56.7200    29.4990 C.3          1 SM8901   0.0000
    12 C1F         -1.7740    57.5550    30.7700 C.3          1 SM8901   0.0000
    13 O1F          0.8780    58.6880    27.8970 O.3          1 SM8901   0.0000
    14 C1G         -1.7320    59.0460    30.4610 C.3          1 SM8901   0.0000
    15 O1G          0.2210    56.7460    26.3590 O.2          1 SM8901   0.0000
    16 C1H         -0.5180    59.4290    29.6200 C.3          1 SM8901   0.0000
    17 O1H         -2.4730    57.2490    28.3890 O.3          1 SM8901   0.0000
    18 C1I         -1.5800    61.4540    28.6140 C.2          1 SM8901   0.0000
    19 C1J         -0.4530    60.9460    29.4840 C.3          1 SM8901   0.0000
    20 C1K         -2.3070    62.7170    28.9710 C.3          1 SM8901   0.0000
    21 C1L         -1.9310    60.7750    27.5140 C.2          1 SM8901   0.0000
    22 C1M         -1.2840    59.4860    27.2080 C.2          1 SM8901   0.0000
    23 C1N         -0.5080    58.7370    28.2620 C.3          1 SM8901   0.0000
    24 C1O         -1.0480    57.3080    28.2820 C.3          1 SM8901   0.0000
    25 C1P         -0.5550    56.3630    27.2210 C.2          1 SM8901   0.0000
    26 C1Q         -1.0240    54.9420    27.2440 C.ar         1 SM8901   0.0000
    27 C1R         -0.8770    54.1560    26.1060 C.ar         1 SM8901   0.0000
    28 C1S         -1.3080    52.8360    26.1240 C.ar         1 SM8901   0.0000
    29 C2A         -2.3400    50.9220    27.3200 C.3          1 SM8901   0.0000
    30 O2A         -1.7330    50.1640    26.2760 O.3          1 SM8901   0.0000
    31 C2B         -3.8440    50.9550    27.1190 C.3          1 SM8901   0.0000
    32 O2B         -3.9560    47.2680    26.4230 O.3          1 SM8901   0.0000
    33 C2C         -4.3810    49.5340    27.1190 C.3          1 SM8901   0.0000
    34 O2C         -4.0480    45.4780    24.9980 O.2          1 SM8901   0.0000
    35 C2D         -3.5830    48.6240    26.1910 C.3          1 SM8901   0.0000
    36 O2D         -5.7280    49.6140    26.6710 O.3          1 SM8901   0.0000
    37 C2E         -2.0770    48.7840    26.3710 C.3          1 SM8901   0.0000
    38 C2F         -1.3220    48.0110    25.2980 C.3          1 SM8901   0.0000
    39 C2G         -4.4010    46.6290    25.1950 C.2          1 SM8901   0.0000
    40 C2H         -5.2610    47.3860    24.2230 C.3          1 SM8901   0.0000
    41 C3A         -6.5980    49.0400    27.6750 C.2          1 SM8901   0.0000
    42 O3A         -6.1070    48.7250    28.7460 O.2          1 SM8901   0.0000
    43 C3B         -7.8980    48.8690    27.4040 C.2          1 SM8901   0.0000
    44 O3B        -16.4630    45.7790    30.6310 O.2          1 SM8901   0.0000
    45 C3C         -8.6860    48.3380    28.3310 C.2          1 SM8901   0.0000
    46 C3D         -9.9790    48.1550    28.0970 C.2          1 SM8901   0.0000
    47 C3E        -10.6940    47.6190    29.0770 C.2          1 SM8901   0.0000
    48 C3F        -11.9950    47.3900    28.9550 C.2          1 SM8901   0.0000
    49 C3G        -12.5890    46.8500    30.0130 C.2          1 SM8901   0.0000
    50 C3H        -13.8840    46.5590    30.0530 C.2          1 SM8901   0.0000
    51 C3I        -14.2980    46.0260    31.1940 C.2          1 SM8901   0.0000
    52 C3J        -15.5590    45.6560    31.4430 C.2          1 SM8901   0.0000
    53 C4A        -17.0090    44.7350    33.0170 C.2          1 SM8901   0.0000
    54 O4A        -16.7610    42.3740    32.3080 O.3          1 SM8901   0.0000
    55 C4B        -17.5330    43.3580    32.8460 C.2          1 SM8901   0.0000
    56 O4B        -22.8520    42.6770    34.6030 O.3          1 SM8901   0.0000
    57 C4C        -18.9340    43.1250    33.2970 C.ar         1 SM8901   0.0000
    58 O4C        -19.1510    45.4560    33.9860 O.2          1 SM8901   0.0000
    59 C4D        -19.5450    41.8790    33.1930 C.ar         1 SM8901   0.0000
    60 O4D        -17.4570    46.9400    33.7570 O.2          1 SM8901   0.0000
    61 C4E        -20.8600    41.7200    33.6310 C.ar         1 SM8901   0.0000
    62 O4E         -0.6310    57.1770    31.5450 O.3          1 SM8901   0.0000
    63 C4F        -21.5670    42.7950    34.1690 C.ar         1 SM8901   0.0000
    64 C4G        -20.9540    44.0250    34.2690 C.ar         1 SM8901   0.0000
    65 C4H        -19.6520    44.1900    33.8380 C.ar         1 SM8901   0.0000
    66 C4I        -17.8820    45.7750    33.6070 C.2          1 SM8901   0.0000
    67 H1         -14.9567    45.0375    33.2819 H            1 SM8901   0.0000
    68 H1B         -3.1319    55.3850    31.0778 H            1 SM8901   0.0000
    69 H1D         -0.9050    55.0345    30.0879 H            1 SM8901   0.0000
    70 H4           0.5080    58.1853    30.8049 H            1 SM8901   0.0000
    71 H1F         -2.6055    57.3479    31.2854 H            1 SM8901   0.0000
    72 H6           0.9617    58.7193    26.9010 H            1 SM8901   0.0000
    73 H1G1        -1.6989    59.5522    31.3228 H            1 SM8901   0.0000
    74 H1G2        -2.5613    59.2941    29.9603 H            1 SM8901   0.0000
    75 H1J1         0.4211    61.2013    29.0708 H            1 SM8901   0.0000
    76 H1J2        -0.5265    61.3602    30.3912 H            1 SM8901   0.0000
    77 H1K1        -3.0153    62.8982    28.2887 H            1 SM8901   0.0000
    78 H1K2        -2.7299    62.6150    29.8714 H            1 SM8901   0.0000
    79 H1K3        -1.6604    63.4796    28.9908 H            1 SM8901   0.0000
    80 H1L         -2.6309    61.1419    26.9012 H            1 SM8901   0.0000
    81 H1R         -0.4635    54.5390    25.2800 H            1 SM8901   0.0000
    82 H1S         -1.2100    52.2617    25.3113 H            1 SM8901   0.0000
    83 H2A         -2.1235    50.5146    28.2072 H            1 SM8901   0.0000
    84 H2B1        -4.0548    51.3919    26.2445 H            1 SM8901   0.0000
    85 H2B2        -4.2691    51.4729    27.8614 H            1 SM8901   0.0000
    86 H2C         -4.3583    49.1672    28.0490 H            1 SM8901   0.0000
    87 H2D         -3.8138    48.8570    25.2463 H            1 SM8901   0.0000
    88 H2E         -1.8140    48.4397    27.2723 H            1 SM8901   0.0000
    89 H2F1        -1.5579    47.0411    25.3577 H            1 SM8901   0.0000
    90 H2F2        -1.5743    48.3604    24.3957 H            1 SM8901   0.0000
    91 H2F3        -0.3380    48.1239    25.4360 H            1 SM8901   0.0000
    92 H2H1        -5.4733    46.8012    23.4401 H            1 SM8901   0.0000
    93 H2H2        -6.1103    47.6612    24.6735 H            1 SM8901   0.0000
    94 H2H3        -4.7718    48.1994    23.9084 H            1 SM8901   0.0000
    95 H3B         -8.2702    49.1376    26.5156 H            1 SM8901   0.0000
    96 H3C         -8.3009    48.0731    29.2151 H            1 SM8901   0.0000
    97 H3D        -10.3945    48.4090    27.2236 H            1 SM8901   0.0000
    98 H3E        -10.2383    47.3801    29.9345 H            1 SM8901   0.0000
    99 H3F        -12.4970    47.6102    28.1187 H            1 SM8901   0.0000
   100 H3G        -12.0329    46.6526    30.8203 H            1 SM8901   0.0000
   101 H3H        -14.4988    46.7286    29.2828 H            1 SM8901   0.0000
   102 H3I        -13.6214    45.8914    31.9179 H            1 SM8901   0.0000
   103 H4B        -23.3263    43.4711    34.9831 H            1 SM8901   0.0000
   104 H4D        -19.0453    41.1035    32.8072 H            1 SM8901   0.0000
   105 H4E        -21.3005    40.8252    33.5584 H            1 SM8901   0.0000
   106 H40         -0.8349    57.2913    32.5173 H            1 SM8901   0.0000
   107 H4A        -17.1307    41.4511    32.2001 H            1 SM8901   0.0000
@<TRIPOS>BOND
     1    1   52      am
     2    1   53       1
     3    2   64       1
     4    3    5      ar
     5    3   28      ar
     6    3   29       1
     7    4    5       1
     8    5    7      ar
     9    6    9       1
    10    7    9       1
    11    7   26      ar
    12    8   22       2
    13    9   11       1
    14   10   16       1
    15   11   12       1
    16   11   17       1
    17   11   24       1
    18   12   14       1
    19   12   62       1
    20   13   23       1
    21   14   16       1
    22   15   25       2
    23   16   19       1
    24   16   23       1
    25   17   24       1
    26   18   19       1
    27   18   20       1
    28   18   21       2
    29   21   22       1
    30   22   23       1
    31   23   24       1
    32   24   25       1
    33   25   26       1
    34   26   27      ar
    35   27   28      ar
    36   29   30       1
    37   29   31       1
    38   30   37       1
    39   31   33       1
    40   32   35       1
    41   32   39       1
    42   33   35       1
    43   33   36       1
    44   34   39       2
    45   35   37       1
    46   36   41       1
    47   37   38       1
    48   39   40       1
    49   41   42       2
    50   41   43       1
    51   43   45       2
    52   44   52       2
    53   45   46       1
    54   46   47       2
    55   47   48       1
    56   48   49       2
    57   49   50       1
    58   50   51       2
    59   51   52       1
    60   53   55       2
    61   53   66       1
    62   54   55       1
    63   55   57       1
    64   56   63       1
    65   57   59      ar
    66   57   65      ar
    67   58   65       1
    68   58   66       1
    69   59   61      ar
    70   60   66       2
    71   61   63      ar
    72   63   64      ar
    73   64   65      ar
    74    1   67       1
    75   54  107       1
    76    6   68       1
    77    9   69       1
    78   10   70       1
    79   12   71       1
    80   13   72       1
    81   14   73       1
    82   14   74       1
    83   19   75       1
    84   19   76       1
    85   20   77       1
    86   20   78       1
    87   20   79       1
    88   21   80       1
    89   27   81       1
    90   28   82       1
    91   29   83       1
    92   31   84       1
    93   31   85       1
    94   33   86       1
    95   35   87       1
    96   37   88       1
    97   38   89       1
    98   38   90       1
    99   38   91       1
   100   40   92       1
   101   40   93       1
   102   40   94       1
   103   43   95       1
   104   45   96       1
   105   46   97       1
   106   47   98       1
   107   48   99       1
   108   49  100       1
   109   50  101       1
   110   51  102       1
   111   62  106       1
   112   56  103       1
   113   59  104       1
   114   61  105       1
@<TRIPOS>SUBSTRUCTURE
     1 SM8901      1 GROUP             4 A     SM8     0 **** SM8 A 901
