@<TRIPOS>MOLECULE
3kko_GNP_2_ligand
   45    47     1     0     0
SMALL
NO_CHARGES


@<TRIPOS>ATOM
     1 PG           6.8040   -68.8260    20.5630 P.3          1 GNP179   0.0000
     2 O1G          7.7530   -69.9720    20.2840 O.co2        1 GNP179   0.0000
     3 O2G          5.6530   -69.1860    21.4720 O.co2        1 GNP179  -1.0000
     4 O3G          6.4160   -68.3320    19.1940 O.co2        1 GNP179  -1.0000
     5 N3B          7.6560   -67.6670    21.2930 N.3          1 GNP179   0.0000
     6 PB           7.1470   -66.2060    21.7710 P.3          1 GNP179   0.0000
     7 O1B          7.0250   -65.3000    20.6050 O.co2        1 GNP179   0.0000
     8 O2B          5.9370   -66.4080    22.5790 O.co2        1 GNP179  -1.0000
     9 O3A          8.2740   -65.6390    22.6860 O.3          1 GNP179   0.0000
    10 PA           8.3550   -65.7290    24.2440 P.3          1 GNP179   0.0000
    11 O1A          8.3960   -67.1410    24.6480 O.co2        1 GNP179   0.0000
    12 O2A          7.3700   -64.8440    24.9020 O.co2        1 GNP179  -1.0000
    13 O5'          9.7430   -65.0650    24.6010 O.3          1 GNP179   0.0000
    14 C5'         11.0110   -65.6000    24.0940 C.3          1 GNP179   0.0000
    15 C4'         12.1360   -65.2130    25.0280 C.3          1 GNP179   0.0000
    16 O4'         12.2930   -63.7790    24.9310 O.3          1 GNP179   0.0000
    17 C3'         11.8920   -65.4890    26.5150 C.3          1 GNP179   0.0000
    18 O3'         13.1120   -65.8740    27.1820 O.3          1 GNP179   0.0000
    19 C2'         11.3830   -64.1640    27.0610 C.3          1 GNP179   0.0000
    20 O2'         11.7160   -64.0070    28.4320 O.3          1 GNP179   0.0000
    21 C1'         12.1350   -63.1580    26.1880 C.3          1 GNP179   0.0000
    22 N9          11.4360   -61.8750    25.9990 N.pl3        1 GNP179   0.0000
    23 C8          10.1400   -61.7110    25.5600 C.2          1 GNP179   0.0000
    24 N7           9.7970   -60.4580    25.5040 N.2          1 GNP179   0.0000
    25 C5          10.9120   -59.7400    25.9190 C.2          1 GNP179   0.0000
    26 C6          11.1320   -58.3350    26.0470 C.2          1 GNP179   0.0000
    27 O6          10.3610   -57.3830    25.8320 O.2          1 GNP179   0.0000
    28 N1          12.4170   -58.0430    26.5190 N.pl3        1 GNP179   0.0000
    29 C2          13.3710   -58.9970    26.8080 C.2          1 GNP179   0.0000
    30 N2          14.5590   -58.5480    27.2480 N.pl3        1 GNP179   0.0000
    31 N3          13.1790   -60.3020    26.6680 N.2          1 GNP179   0.0000
    32 C4          11.9290   -60.6100    26.2280 C.2          1 GNP179   0.0000
    33 H3B          8.0076   -68.0970    22.1245 H            1 GNP179   0.0000
    34 H5'1        11.1901   -65.2252    23.1843 H            1 GNP179   0.0000
    35 H5'2        10.9529   -66.5968    24.0384 H            1 GNP179   0.0000
    36 H4'         12.9810   -65.6625    24.7384 H            1 GNP179   0.0000
    37 H3'         11.1972   -66.1995    26.6262 H            1 GNP179   0.0000
    38 H6          12.9230   -66.0474    28.1485 H            1 GNP179   0.0000
    39 H2'         10.3957   -64.0815    26.9252 H            1 GNP179   0.0000
    40 H8          10.8785   -63.9068    28.9691 H            1 GNP179   0.0000
    41 H1'         13.0363   -62.9862    26.5858 H            1 GNP179   0.0000
    42 H10          9.5341   -62.4673    25.3133 H            1 GNP179   0.0000
    43 H11         12.6589   -57.0823    26.6554 H            1 GNP179   0.0000
    44 H12         15.2866   -59.1963    27.4723 H            1 GNP179   0.0000
    45 H13         14.7153   -57.5657    27.3511 H            1 GNP179   0.0000
@<TRIPOS>BOND
     1    1    2      ar
     2    1    3      ar
     3    1    4      ar
     4    1    5       1
     5    5    6       1
     6    6    7      ar
     7    6    8      ar
     8    6    9       1
     9    9   10       1
    10   10   11      ar
    11   10   12      ar
    12   10   13       1
    13   13   14       1
    14   14   15       1
    15   15   16       1
    16   15   17       1
    17   16   21       1
    18   17   18       1
    19   17   19       1
    20   19   20       1
    21   19   21       1
    22   21   22       1
    23   22   23       1
    24   22   32       1
    25   23   24       2
    26   24   25       1
    27   25   26       1
    28   25   32       2
    29   26   27       2
    30   26   28       1
    31   28   29       1
    32   29   30       1
    33   29   31       2
    34   31   32       1
    35   30   45       1
    36   30   44       1
    37    5   33       1
    38   28   43       1
    39   23   42       1
    40   14   34       1
    41   14   35       1
    42   15   36       1
    43   17   37       1
    44   18   38       1
    45   19   39       1
    46   20   40       1
    47   21   41       1
@<TRIPOS>SUBSTRUCTURE
     1 GNP179      1 GROUP             4 B     GNP     0 **** GNP B 179
