@<TRIPOS>MOLECULE
3cjf_SAV_1_ligand
   52    55     1     0     0
SMALL
NO_CHARGES


@<TRIPOS>ATOM
     1 N1          15.3790    18.8480    17.9850 N.pl3        1 SAV1167   0.0000
     2 N3          17.9870    15.1760    16.3690 N.pl3        1 SAV1167   0.0000
     3 C4          16.3980    19.3970    18.7970 C.ar         1 SAV1167   0.0000
     4 C5          15.5220    17.6990    17.1860 C.ar         1 SAV1167   0.0000
     5 C6          14.5950    16.2570    15.7250 C.ar         1 SAV1167   0.0000
     6 C7          15.7470    15.5170    15.6700 C.ar         1 SAV1167   0.0000
     7 C8          16.8080    15.9380    16.4310 C.ar         1 SAV1167   0.0000
     8 C10         19.7310    16.5750    17.3190 C.ar         1 SAV1167   0.0000
     9 C13         22.2400    15.5990    19.9220 C.2          1 SAV1167   0.0000
    10 C15         20.5610    14.5650    18.8780 C.ar         1 SAV1167   0.0000
    11 C17         16.4030    20.7610    19.0040 C.ar         1 SAV1167   0.0000
    12 C20         18.3630    20.6010    20.3790 C.ar         1 SAV1167   0.0000
    13 C21         18.7170    21.7510    22.2890 C.3          1 SAV1167   0.0000
    14 C1          18.6690    17.6660    21.7500 C.3          1 SAV1167   0.0000
    15 O1          19.3400    18.4480    20.7550 O.3          1 SAV1167   0.0000
    16 C2          18.3530    19.2350    20.1760 C.ar         1 SAV1167   0.0000
    17 C3          17.3840    18.6370    19.3980 C.ar         1 SAV1167   0.0000
    18 N2          14.4490    17.3490    16.4680 N.ar         1 SAV1167   0.0000
    19 C9          19.0810    15.3590    17.2550 C.ar         1 SAV1167   0.0000
    20 C11         20.7980    16.8180    18.1540 C.ar         1 SAV1167   0.0000
    21 C12         21.2180    15.7770    18.9510 C.ar         1 SAV1167   0.0000
    22 C14         23.2350    16.5840    20.3940 C.3          1 SAV1167   0.0000
    23 N4          22.2240    14.3570    20.4270 N.2          1 SAV1167   0.0000
    24 N5          21.2020    13.7550    19.7780 N.pl3        1 SAV1167   0.0000
    25 C16         19.4950    14.3120    18.0490 C.ar         1 SAV1167   0.0000
    26 N6          16.6880    17.0350    17.1810 N.ar         1 SAV1167   0.0000
    27 C18         17.3710    21.3620    19.7860 C.ar         1 SAV1167   0.0000
    28 O2          17.3500    22.7350    19.9620 O.3          1 SAV1167   0.0000
    29 C19         16.0040    23.1410    20.1480 C.3          1 SAV1167   0.0000
    30 O3          19.3740    21.1590    21.1630 O.3          1 SAV1167   0.0000
    31 H1          14.4922    19.3101    17.9782 H            1 SAV1167   0.0000
    32 H2          18.0590    14.4692    15.6653 H            1 SAV1167   0.0000
    33 H3          13.8172    15.9571    15.1726 H            1 SAV1167   0.0000
    34 H4          15.8119    14.7004    15.0964 H            1 SAV1167   0.0000
    35 H5          19.4108    17.3164    16.7293 H            1 SAV1167   0.0000
    36 H6          15.6937    21.3247    18.5807 H            1 SAV1167   0.0000
    37 H7          19.3979    22.1695    22.8901 H            1 SAV1167   0.0000
    38 H8          18.0774    22.4511    21.9716 H            1 SAV1167   0.0000
    39 H9          18.2169    21.0459    22.7918 H            1 SAV1167   0.0000
    40 H10         19.3298    17.0718    22.2086 H            1 SAV1167   0.0000
    41 H11         18.2450    18.2737    22.4215 H            1 SAV1167   0.0000
    42 H12         17.9637    17.1065    21.3146 H            1 SAV1167   0.0000
    43 H13         17.3947    17.6456    19.2676 H            1 SAV1167   0.0000
    44 H14         21.2479    17.7107    18.1805 H            1 SAV1167   0.0000
    45 H15         23.8224    16.1602    21.0835 H            1 SAV1167   0.0000
    46 H16         23.7933    16.8896    19.6227 H            1 SAV1167   0.0000
    47 H17         22.7627    17.3688    20.7953 H            1 SAV1167   0.0000
    48 H18         20.9378    12.8043    19.9403 H            1 SAV1167   0.0000
    49 H19         19.0454    13.4191    18.0234 H            1 SAV1167   0.0000
    50 H20         15.9696    24.1321    20.2770 H            1 SAV1167   0.0000
    51 H21         15.4661    22.8907    19.3430 H            1 SAV1167   0.0000
    52 H22         15.6273    22.6865    20.9552 H            1 SAV1167   0.0000
@<TRIPOS>BOND
     1    1    3       1
     2    1    4       1
     3    2    7       1
     4    2   19       1
     5    3   11      ar
     6    3   17      ar
     7    4   18      ar
     8    4   26      ar
     9    5    6      ar
    10    5   18      ar
    11    6    7      ar
    12    7   26      ar
    13    8   19      ar
    14    8   20      ar
    15    9   21       1
    16    9   22       1
    17    9   23       2
    18   10   21      ar
    19   10   24       1
    20   10   25      ar
    21   11   27      ar
    22   12   16      ar
    23   12   27      ar
    24   12   30       1
    25   13   30       1
    26   14   15       1
    27   15   16       1
    28   16   17      ar
    29   19   25      ar
    30   20   21      ar
    31   23   24       1
    32   27   28       1
    33   28   29       1
    34    1   31       1
    35    2   32       1
    36    5   33       1
    37    6   34       1
    38    8   35       1
    39   11   36       1
    40   13   37       1
    41   13   38       1
    42   13   39       1
    43   14   40       1
    44   14   41       1
    45   14   42       1
    46   17   43       1
    47   20   44       1
    48   22   45       1
    49   22   46       1
    50   22   47       1
    51   24   48       1
    52   25   49       1
    53   29   50       1
    54   29   51       1
    55   29   52       1
@<TRIPOS>SUBSTRUCTURE
     1 SAV1167     1 GROUP             4 A     SAV     0 **** SAV A1167
