@<TRIPOS>MOLECULE
4mub_OAQ_1_ligand
   42    43     1     0     0
SMALL
NO_CHARGES


@<TRIPOS>ATOM
     1 C1         111.9740     7.2990    14.8620 C.ar         1 OAQ302   0.0000
     2 C2         112.4430     7.7970    13.6210 C.ar         1 OAQ302   0.0000
     3 C3         111.7210     8.8630    12.9340 C.ar         1 OAQ302   0.0000
     4 C4         110.5320     9.4110    13.5260 C.ar         1 OAQ302   0.0000
     5 C5         110.0430     8.8850    14.8280 C.ar         1 OAQ302   0.0000
     6 C6         110.7480     7.8610    15.4680 C.ar         1 OAQ302   0.0000
     7 C7         108.2060     8.7090    16.5280 C.3          1 OAQ302   0.0000
     8 C8         108.8580     7.5310    17.1260 C.3          1 OAQ302   0.0000
     9 C9         110.2840     7.2690    16.8210 C.3          1 OAQ302   0.0000
    10 C10        113.7030     7.1800    13.0630 C.3          1 OAQ302   0.0000
    11 C11        107.6130     9.6110    17.6070 C.3          1 OAQ302   0.0000
    12 C12        106.0750     7.7220    19.4870 C.3          1 OAQ302   0.0000
    13 C13        104.2040     9.2580    19.0550 C.3          1 OAQ302   0.0000
    14 C14        105.7190     9.0900    19.0370 C.3          1 OAQ302   0.0000
    15 N1         108.8240     9.4340    15.4480 N.pl3        1 OAQ302   0.0000
    16 N2         112.1940     9.3930    11.6790 N.2          1 OAQ302   1.0000
    17 N3         106.2020     9.3010    17.6750 N.4          1 OAQ302   1.0000
    18 O1         112.2900    10.6830    11.5420 O.co2        1 OAQ302   0.0000
    19 O2         112.5350     8.6180    10.6840 O.co2        1 OAQ302  -1.0000
    20 O3         114.2430     6.3960    14.0380 O.3          1 OAQ302   0.0000
    21 H1         112.4721     6.5676    15.3278 H            1 OAQ302   0.0000
    22 H2         110.0343    10.1447    13.0633 H            1 OAQ302   0.0000
    23 H3         107.3938     8.3172    16.0957 H            1 OAQ302   0.0000
    24 H4         108.3420     6.7277    16.8286 H            1 OAQ302   0.0000
    25 H5         108.7831     7.6266    18.1186 H            1 OAQ302   0.0000
    26 H6         110.8414     7.6688    17.5486 H            1 OAQ302   0.0000
    27 H7         110.4256     6.2793    16.7981 H            1 OAQ302   0.0000
    28 H8         114.3495     7.8981    12.8055 H            1 OAQ302   0.0000
    29 H9         113.4846     6.6247    12.2605 H            1 OAQ302   0.0000
    30 H10        107.7438    10.5721    17.3636 H            1 OAQ302   0.0000
    31 H11        108.0494     9.4279    18.4880 H            1 OAQ302   0.0000
    32 H12        107.0692     7.6150    19.4741 H            1 OAQ302   0.0000
    33 H13        105.7363     7.5783    20.4169 H            1 OAQ302   0.0000
    34 H14        105.6595     7.0506    18.8734 H            1 OAQ302   0.0000
    35 H15        103.9673    10.1809    18.7512 H            1 OAQ302   0.0000
    36 H16        103.7870     8.5878    18.4411 H            1 OAQ302   0.0000
    37 H17        103.8638     9.1155    19.9845 H            1 OAQ302   0.0000
    38 H18        106.1372     9.7623    19.6479 H            1 OAQ302   0.0000
    39 H19        108.4326    10.2954    15.1243 H            1 OAQ302   0.0000
    40 H20        106.0346     8.4685    17.1469 H            1 OAQ302   0.0000
    41 H21        115.2371     6.3704    13.9327 H            1 OAQ302   0.0000
    42 H22        105.6910    10.0600    17.2716 H            1 OAQ302   0.0000
@<TRIPOS>BOND
     1    1    2      ar
     2    1    6      ar
     3    2    3      ar
     4    2   10       1
     5    3    4      ar
     6    3   16       1
     7    4    5      ar
     8    5    6      ar
     9    5   15       1
    10    6    9       1
    11    7    8       1
    12    7   11       1
    13    7   15       1
    14    8    9       1
    15   10   20       1
    16   11   17       1
    17   12   14       1
    18   13   14       1
    19   14   17       1
    20   16   18      ar
    21   16   19      ar
    22    1   21       1
    23    4   22       1
    24    7   23       1
    25    8   24       1
    26    8   25       1
    27    9   26       1
    28    9   27       1
    29   10   28       1
    30   10   29       1
    31   11   30       1
    32   11   31       1
    33   12   32       1
    34   12   33       1
    35   12   34       1
    36   13   35       1
    37   13   36       1
    38   13   37       1
    39   14   38       1
    40   15   39       1
    41   17   40       1
    42   20   41       1
    43   17   42       1
@<TRIPOS>SUBSTRUCTURE
     1 OAQ302      1 GROUP             4 A     OAQ     0 **** OAQ A 302
