@<TRIPOS>MOLECULE
1qxo_FMN_1_ligand
   50    52     1     0     0
SMALL
NO_CHARGES


@<TRIPOS>ATOM
     1 N1         -14.0550    11.3130    18.5080 N.2          1 FMN4001   0.0000
     2 C2         -15.0430    11.7190    19.3650 C.2          1 FMN4001   0.0000
     3 O2         -15.1450    12.8710    19.6910 O.2          1 FMN4001   0.0000
     4 N3         -15.9300    10.7460    19.8300 N.pl3        1 FMN4001   0.0000
     5 C4         -15.9560     9.4690    19.5770 C.2          1 FMN4001   0.0000
     6 O4         -16.7720     8.6640    20.0310 O.2          1 FMN4001   0.0000
     7 C4A        -14.8940     9.0140    18.6560 C.2          1 FMN4001   0.0000
     8 N5         -14.8680     7.8250    18.1590 N.2          1 FMN4001   0.0000
     9 C5A        -13.8260     7.4340    17.3300 C.ar         1 FMN4001   0.0000
    10 C6         -13.6490     6.0690    16.9970 C.ar         1 FMN4001   0.0000
    11 C7         -12.6260     5.6410    16.1680 C.ar         1 FMN4001   0.0000
    12 C7M        -12.4360     4.1400    15.7990 C.3          1 FMN4001   0.0000
    13 C8         -11.7370     6.5790    15.6200 C.ar         1 FMN4001   0.0000
    14 C8M        -10.6060     6.1090    14.7100 C.3          1 FMN4001   0.0000
    15 C9         -11.8970     7.9420    15.9330 C.ar         1 FMN4001   0.0000
    16 C9A        -12.9400     8.3600    16.8010 C.ar         1 FMN4001   0.0000
    17 N10        -13.0270     9.6520    17.2990 N.pl3        1 FMN4001   0.0000
    18 C10        -13.9850    10.0470    18.1690 C.2          1 FMN4001   0.0000
    19 C1'        -12.1300    10.7380    16.8130 C.3          1 FMN4001   0.0000
    20 C2'        -12.6660    11.7290    15.8350 C.3          1 FMN4001   0.0000
    21 O2'        -13.2950    11.0380    14.7100 O.3          1 FMN4001   0.0000
    22 C3'        -11.6610    12.7500    15.1880 C.3          1 FMN4001   0.0000
    23 O3'        -10.7590    13.4000    16.1650 O.3          1 FMN4001   0.0000
    24 C4'        -12.2670    13.9160    14.4570 C.3          1 FMN4001   0.0000
    25 O4'        -13.0380    13.4720    13.3260 O.3          1 FMN4001   0.0000
    26 C5'        -11.3180    15.0200    13.9720 C.3          1 FMN4001   0.0000
    27 O5'        -10.2640    14.4390    13.1040 O.3          1 FMN4001   0.0000
    28 P           -8.7540    14.4620    13.5840 P.3          1 FMN4001   0.0000
    29 O1P         -8.6420    14.0750    15.0330 O.co2        1 FMN4001   0.0000
    30 O2P         -8.2850    15.9030    13.3870 O.co2        1 FMN4001  -1.0000
    31 O3P         -8.1190    13.4440    12.6030 O.co2        1 FMN4001  -1.0000
    32 H1         -16.6466    11.0767    20.4441 H            1 FMN4001   0.0000
    33 H2         -14.2829     5.3929    17.3725 H            1 FMN4001   0.0000
    34 H7M1       -11.6458     4.0429    15.1939 H            1 FMN4001   0.0000
    35 H7M2       -12.2850     3.6084    16.6324 H            1 FMN4001   0.0000
    36 H7M3       -13.2552     3.8048    15.3337 H            1 FMN4001   0.0000
    37 H8M1       -10.0707     6.8981    14.4088 H            1 FMN4001   0.0000
    38 H8M2       -10.0151     5.4773    15.2118 H            1 FMN4001   0.0000
    39 H8M3       -10.9910     5.6435    13.9131 H            1 FMN4001   0.0000
    40 H9         -11.2733     8.6190    15.5423 H            1 FMN4001   0.0000
    41 H1'1       -11.3416    10.2978    16.3832 H            1 FMN4001   0.0000
    42 H1'2       -11.8282    11.2515    17.6163 H            1 FMN4001   0.0000
    43 H2'        -13.3762    12.2578    16.2997 H            1 FMN4001   0.0000
    44 H13        -14.0464    10.4699    15.0457 H            1 FMN4001   0.0000
    45 H3'        -11.0923    12.2461    14.5379 H            1 FMN4001   0.0000
    46 H15         -9.8907    13.6213    15.7211 H            1 FMN4001   0.0000
    47 H4'        -12.9095    14.3482    15.0898 H            1 FMN4001   0.0000
    48 H17        -12.6588    13.8659    12.4887 H            1 FMN4001   0.0000
    49 H5'1       -10.8910    15.4601    14.7619 H            1 FMN4001   0.0000
    50 H5'2       -11.8375    15.6986    13.4528 H            1 FMN4001   0.0000
@<TRIPOS>BOND
     1    1    2       1
     2    1   18       2
     3    2    3       2
     4    2    4       1
     5    4    5       1
     6    5    6       2
     7    5    7       1
     8    7    8       2
     9    7   18       1
    10    8    9       1
    11    9   10      ar
    12    9   16      ar
    13   10   11      ar
    14   11   12       1
    15   11   13      ar
    16   13   14       1
    17   13   15      ar
    18   15   16      ar
    19   16   17       1
    20   17   18       1
    21   17   19       1
    22   19   20       1
    23   20   21       1
    24   20   22       1
    25   22   23       1
    26   22   24       1
    27   24   25       1
    28   24   26       1
    29   26   27       1
    30   27   28       1
    31   28   29      ar
    32   28   30      ar
    33   28   31      ar
    34    4   32       1
    35   10   33       1
    36   12   34       1
    37   12   35       1
    38   12   36       1
    39   14   37       1
    40   14   38       1
    41   14   39       1
    42   15   40       1
    43   19   41       1
    44   19   42       1
    45   20   43       1
    46   21   44       1
    47   22   45       1
    48   23   46       1
    49   24   47       1
    50   25   48       1
    51   26   49       1
    52   26   50       1
@<TRIPOS>SUBSTRUCTURE
     1 FMN4001     1 GROUP             4 A     FMN     0 **** FMN A4001
