@<TRIPOS>MOLECULE
./coach420/3g1x/ligand.pdb
 41 43 0 0 0
SMALL
GASTEIGER

@<TRIPOS>ATOM
      1  OP3        6.2640   -2.7630    5.0560 O.2   229  U229       -0.2224
      2  P          7.3180   -1.7800    5.7170 P.3   229  U229        0.5327
      3  OP1        6.6790   -0.6360    6.4580 O.3   229  U229       -0.1145
      4  OP2        8.1870   -2.5880    6.6250 O.3   229  U229       -0.1145
      5  O5'        8.3080   -1.2730    4.5820 O.3   229  U229       -0.2675
      6  C5'        7.9830   -0.1870    3.7080 C.3   229  U229        0.1859
      7  C4'        9.1960    0.0550    2.8330 C.3   229  U229        0.1803
      8  O4'        8.9380    1.1550    1.9240 O.3   229  U229       -0.3306
      9  C3'       10.5030    0.4590    3.5030 C.3   229  U229        0.2161
     10  O3'       11.6310   -0.0230    2.7630 O.3   229  U229       -0.2175
     11  C2'       10.4440    1.9530    3.5170 C.3   229  U229        0.2338
     12  O2'       11.7100    2.5720    3.6900 O.3   229  U229       -0.2155
     13  C1'        9.7730    2.2610    2.2030 C.3   229  U229        0.2421
     14  N1         8.9540    3.4860    2.1040 N.ar  229  U229       -0.2534
     15  C2         7.8080    3.6920    2.9280 C.ar  229  U229        0.3546
     16  O2         7.5110    2.9180    3.8120 O.2   229  U229       -0.2443
     17  N3         7.0770    4.8330    2.6310 N.ar  229  U229       -0.1530
     18  C4         7.3500    5.7880    1.6320 C.ar  229  U229        0.2846
     19  O4         6.5780    6.7070    1.5020 O.2   229  U229       -0.2650
     20  C5         8.5560    5.5440    0.8650 C.ar  229  U229        0.0814
     21  C6         9.3300    4.4760    1.1520 C.ar  229  U229        0.0870
     22  P         30.0000   20.8930   -5.4660 P.3   230  U230        0.5411
     23  OP1       28.8600   21.5470   -6.2060 O.2   230  U230       -0.2272
     24  OP2       30.7960   20.0080   -6.3670 O.2   230  U230       -0.2272
     25  O5'       29.4900   19.9160   -4.3250 O.3   230  U230       -0.2722
     26  C5'       28.3850   20.2340   -3.4700 C.3   230  U230        0.1852
     27  C4'       28.1540   19.0220   -2.5850 C.3   230  U230        0.1803
     28  O4'       27.0590   19.2820   -1.6720 O.3   230  U230       -0.3306
     29  C3'       27.7480   17.7100   -3.2420 C.3   230  U230        0.2161
     30  O3'       28.2190   16.5880   -2.4880 O.3   230  U230       -0.2175
     31  C2'       26.2570   17.7740   -3.2590 C.3   230  U230        0.2338
     32  O2'       25.6350   16.5100   -3.4240 O.3   230  U230       -0.2155
     33  C1'       25.9510   18.4510   -1.9490 C.3   230  U230        0.2421
     34  N1        24.7270   19.2720   -1.8530 N.ar  230  U230       -0.2534
     35  C2        24.5080   20.4110   -2.6850 C.ar  230  U230        0.3546
     36  O2        25.2830   20.7190   -3.5680 O.2   230  U230       -0.2443
     37  N3        23.3530   21.1240   -2.3980 N.ar  230  U230       -0.1530
     38  C4        22.4190   20.8660   -1.3740 C.ar  230  U230        0.2846
     39  O4        21.4960   21.6290   -1.2460 O.2   230  U230       -0.2650
     40  C5        22.6920   19.6840   -0.5820 C.ar  230  U230        0.0814
     41  C6        23.7430   18.8990   -0.8910 C.ar  230  U230        0.0870
@<TRIPOS>BOND
     1     1     2    2
     2     2     5    1
     3     2     3    1
     4     2     4    1
     5     5     6    1
     6     6     7    1
     7     7     8    1
     8     7     9    1
     9     8    13    1
    10     9    10    1
    11     9    11    1
    12    11    13    1
    13    11    12    1
    14    13    14    1
    15    14    21   ar
    16    14    15   ar
    17    15    17   ar
    18    15    16    2
    19    17    18   ar
    20    18    20   ar
    21    18    19    2
    22    20    21   ar
    23    22    24    2
    24    22    23    2
    25    22    25    1
    26    25    26    1
    27    26    27    1
    28    27    29    1
    29    27    28    1
    30    28    33    1
    31    29    31    1
    32    29    30    1
    33    31    32    1
    34    31    33    1
    35    33    34    1
    36    34    35   ar
    37    34    41   ar
    38    35    36    2
    39    35    37   ar
    40    37    38   ar
    41    38    39    2
    42    38    40   ar
    43    40    41   ar
