@<TRIPOS>MOLECULE
4oxi_GAP_1_ligand
   44    46     1     0     0
SMALL
NO_CHARGES


@<TRIPOS>ATOM
     1 N           36.8970    23.1470     1.4890 N.4          1 GAP601   1.0000
     2 CA          36.4600    22.4320     2.7240 C.3          1 GAP601   0.0000
     3 C           36.9710    21.0080     2.6210 C.2          1 GAP601   0.0000
     4 O           36.8010    20.1820     3.4990 O.2          1 GAP601   0.0000
     5 PA          38.3790    19.2540     1.0400 P.3          1 GAP601   0.0000
     6 O1A         38.6240    19.3690    -0.4440 O.co2        1 GAP601   0.0000
     7 O2A         39.5270    18.9750     1.9960 O.co2        1 GAP601  -1.0000
     8 O3A         37.6770    20.6480     1.4050 O.3          1 GAP601   0.0000
     9 C5'         36.1280    18.1180     0.3200 C.3          1 GAP601   0.0000
    10 O5'         37.2360    18.1370     1.2210 O.3          1 GAP601   0.0000
    11 C4'         35.2390    16.9400     0.6640 C.3          1 GAP601   0.0000
    12 O4'         34.9450    16.9600     2.0630 O.3          1 GAP601   0.0000
    13 C3'         33.8750    17.0120     0.0140 C.3          1 GAP601   0.0000
    14 O3'         33.9110    16.5010    -1.3180 O.3          1 GAP601   0.0000
    15 C2'         33.0310    16.1730     0.9580 C.3          1 GAP601   0.0000
    16 O2'         33.2840    14.7920     0.7510 O.3          1 GAP601   0.0000
    17 C1'         33.6420    16.4340     2.3100 C.3          1 GAP601   0.0000
    18 N9          32.8440    17.4600     3.0180 N.pl3        1 GAP601   0.0000
    19 C8          33.1240    18.7760     3.0660 C.2          1 GAP601   0.0000
    20 N7          32.2080    19.4440     3.8110 N.2          1 GAP601   0.0000
    21 C5          31.3070    18.5350     4.2430 C.ar         1 GAP601   0.0000
    22 C6          30.0750    18.5720     5.0580 C.ar         1 GAP601   0.0000
    23 N6          29.6290    19.7400     5.5940 N.pl3        1 GAP601   0.0000
    24 N1          29.4300    17.3990     5.2630 N.ar         1 GAP601   0.0000
    25 C2          29.8730    16.2300     4.7450 C.ar         1 GAP601   0.0000
    26 N3          30.9870    16.1320     3.9940 N.ar         1 GAP601   0.0000
    27 C4          31.7330    17.2290     3.7190 C.ar         1 GAP601   0.0000
    28 H1          36.2334    23.8606     1.2645 H            1 GAP601   0.0000
    29 H2          37.7935    23.5622     1.6438 H            1 GAP601   0.0000
    30 HA1         35.4620    22.4344     2.7865 H            1 GAP601   0.0000
    31 HA2         36.8456    22.8769     3.5323 H            1 GAP601   0.0000
    32 H5'1        36.4598    18.0258    -0.6188 H            1 GAP601   0.0000
    33 H5'2        35.6086    18.9680     0.4080 H            1 GAP601   0.0000
    34 H4'         35.6925    16.0830     0.4194 H            1 GAP601   0.0000
    35 H3'         33.5472    17.9567     0.0096 H            1 GAP601   0.0000
    36 H9          33.0216    16.1056    -1.5475 H            1 GAP601   0.0000
    37 H2'         32.0582    16.4015     0.9189 H            1 GAP601   0.0000
    38 H11         32.6543    14.4377     0.0597 H            1 GAP601   0.0000
    39 H1'         33.6940    15.5912     2.8458 H            1 GAP601   0.0000
    40 H13         33.9049    19.2049     2.6119 H            1 GAP601   0.0000
    41 H14         28.7937    19.7511     6.1437 H            1 GAP601   0.0000
    42 H15         30.1364    20.5875     5.4384 H            1 GAP601   0.0000
    43 H16         29.3481    15.3988     4.9285 H            1 GAP601   0.0000
    44 H17         36.9569    22.4973     0.7312 H            1 GAP601   0.0000
@<TRIPOS>BOND
     1    1    2       1
     2    2    3       1
     3    3    4       2
     4    3    8       1
     5    5    6      ar
     6    5    7      ar
     7    5    8       1
     8    5   10       1
     9    9   10       1
    10    9   11       1
    11   11   12       1
    12   11   13       1
    13   12   17       1
    14   13   14       1
    15   13   15       1
    16   15   16       1
    17   15   17       1
    18   17   18       1
    19   18   19       1
    20   18   27       1
    21   19   20       2
    22   20   21       1
    23   21   22      ar
    24   21   27      ar
    25   22   23       1
    26   22   24      ar
    27   24   25      ar
    28   25   26      ar
    29   26   27      ar
    30    1   28       1
    31    1   29       1
    32    2   30       1
    33    2   31       1
    34    1   44       1
    35    9   32       1
    36    9   33       1
    37   11   34       1
    38   13   35       1
    39   14   36       1
    40   15   37       1
    41   16   38       1
    42   17   39       1
    43   19   40       1
    44   23   41       1
    45   23   42       1
    46   25   43       1
@<TRIPOS>SUBSTRUCTURE
     1 GAP601      1 GROUP             4 A     GAP     0 **** GAP A 601
