@<TRIPOS>MOLECULE
4c2x_NHW_1_ligand
  124   126     1     0     0
SMALL
NO_CHARGES


@<TRIPOS>ATOM
     1 S1         -14.7340    -3.2150    -4.9130 S.3          1 NHW1000   0.0000
     2 C2         -14.5290    -4.9620    -5.4680 C.3          1 NHW1000   0.0000
     3 C3         -14.7700    -5.9620    -4.3230 C.3          1 NHW1000   0.0000
     4 N4         -14.7030    -7.3590    -4.8330 N.am         1 NHW1000   0.0000
     5 C5         -15.7440    -8.0290    -5.3450 C.2          1 NHW1000   0.0000
     6 O5         -16.8780    -7.5810    -5.4000 O.2          1 NHW1000   0.0000
     7 C6         -15.4710    -9.4570    -5.8570 C.3          1 NHW1000   0.0000
     8 C7         -16.7620   -10.2970    -5.7020 C.3          1 NHW1000   0.0000
     9 N8         -16.9700   -10.3770    -4.2520 N.am         1 NHW1000   0.0000
    10 C9         -16.0320   -10.9210    -3.4750 C.2          1 NHW1000   0.0000
    11 O9         -15.0270   -11.4470    -3.9180 O.2          1 NHW1000   0.0000
    12 CP         -13.0450    -2.5810    -5.3650 C.3          1 NHW1000   0.0000
    13 C10        -16.2840   -10.9740    -1.9920 C.3          1 NHW1000   0.0000
    14 O10        -17.6670   -11.0080    -1.7330 O.3          1 NHW1000   0.0000
    15 C11        -15.5620    -9.8710    -1.2130 C.3          1 NHW1000   0.0000
    16 C12        -15.8800   -10.0860     0.2610 C.3          1 NHW1000   0.0000
    17 C13        -15.9590    -8.4600    -1.5870 C.3          1 NHW1000   0.0000
    18 C14        -14.0800   -10.0270    -1.4670 C.3          1 NHW1000   0.0000
    19 N1A        -14.9450    -3.6640     0.4770 N.ar         1 NHW1000   0.0000
    20 O1A        -17.5020   -12.7900     4.8070 O.co2        1 NHW1000   0.0000
    21 P1A        -16.4650   -12.0240     4.0580 P.3          1 NHW1000   0.0000
    22 C1M        -11.9520    -3.0180    -4.3870 C.2          1 NHW1000   0.0000
    23 O1M        -11.3100    -4.0590    -4.5580 O.2          1 NHW1000   0.0000
    24 C1X        -17.0110    -6.6570     4.1100 C.3          1 NHW1000   0.0000
    25 C2A        -14.6510    -3.7120     1.7670 C.ar         1 NHW1000   0.0000
    26 O2A        -15.1730   -12.7060     3.7610 O.co2        1 NHW1000  -1.0000
    27 P2A        -17.0580   -12.2330     1.3780 P.3          1 NHW1000   0.0000
    28 C2M        -11.7040    -2.1760    -3.1530 C.3          1 NHW1000   0.0000
    29 C2X        -18.4280    -6.8960     4.5950 C.3          1 NHW1000   0.0000
    30 O2X        -19.0330    -5.6050     4.7710 O.3          1 NHW1000   0.0000
    31 N3A        -15.2840    -4.5400     2.5900 N.ar         1 NHW1000   0.0000
    32 O3A        -17.0090   -11.4550     2.7460 O.3          1 NHW1000   0.0000
    33 C3M        -11.6210    -3.0560    -1.9110 C.3          1 NHW1000   0.0000
    34 C3X        -18.1170    -7.5770     5.9250 C.3          1 NHW1000   0.0000
    35 O3X        -17.6950    -6.5520     6.8560 O.3          1 NHW1000   0.0000
    36 P3X        -18.7170    -6.0700     8.0950 P.3          1 NHW1000   0.0000
    37 C4A        -16.2450    -5.3540     2.1210 C.ar         1 NHW1000   0.0000
    38 O4A        -16.7660   -13.6810     1.5390 O.co2        1 NHW1000   0.0000
    39 C4M        -11.6490    -2.1590    -0.6530 C.3          1 NHW1000   0.0000
    40 C4X        -16.9420    -8.4920     5.5420 C.3          1 NHW1000   0.0000
    41 O4X        -16.3870    -7.9400     4.2910 O.3          1 NHW1000   0.0000
    42 C5A        -16.5630    -5.3160     0.7770 C.ar         1 NHW1000   0.0000
    43 O5A        -18.2600   -11.8070     0.7020 O.co2        1 NHW1000  -1.0000
    44 C5M        -11.1490    -2.9870     0.5750 C.3          1 NHW1000   0.0000
    45 C5X        -17.3660    -9.8770     5.1000 C.3          1 NHW1000   0.0000
    46 O5X        -16.2370   -10.7110     4.8590 O.3          1 NHW1000   0.0000
    47 C6A        -15.8890    -4.4490    -0.0510 C.ar         1 NHW1000   0.0000
    48 N6A        -16.1900    -4.4040    -1.3500 N.pl3        1 NHW1000   0.0000
    49 O6A        -15.8930   -11.5030     0.5000 O.3          1 NHW1000   0.0000
    50 C6M        -10.9930    -2.0970     1.8300 C.3          1 NHW1000   0.0000
    51 N7A        -17.5120    -6.2200     0.5620 N.2          1 NHW1000   0.0000
    52 O7A        -17.9650    -4.8730     8.8100 O.co2        1 NHW1000   0.0000
    53 C7M         -9.5940    -1.3960     1.8740 C.3          1 NHW1000   0.0000
    54 C8A        -17.7950    -6.7980     1.7440 C.2          1 NHW1000   0.0000
    55 O8A        -20.0710    -5.4480     7.4840 O.co2        1 NHW1000  -1.0000
    56 C8M         -9.4840    -0.3750     3.0340 C.3          1 NHW1000   0.0000
    57 N9A        -17.0260    -6.2840     2.6910 N.pl3        1 NHW1000   0.0000
    58 O9A        -19.1090    -7.2340     8.9360 O.co2        1 NHW1000  -1.0000
    59 C9M         -8.0480     0.1710     3.1940 C.3          1 NHW1000   0.0000
    60 CAM         -6.9880    -0.9420     3.1200 C.3          1 NHW1000   0.0000
    61 CBM         -5.5450    -0.4040     3.0920 C.3          1 NHW1000   0.0000
    62 CCM         -5.3180     0.8440     3.9880 C.3          1 NHW1000   0.0000
    63 CDM         -3.9010     1.4000     3.8280 C.3          1 NHW1000   0.0000
    64 CEM         -3.7150     2.6540     4.7440 C.3          1 NHW1000   0.0000
    65 H1         -13.5984    -5.0842    -5.8130 H            1 NHW1000   0.0000
    66 H2         -15.1833    -5.1468    -6.2013 H            1 NHW1000   0.0000
    67 H3         -15.6737    -5.7985    -3.9272 H            1 NHW1000   0.0000
    68 H4         -14.0701    -5.8336    -3.6204 H            1 NHW1000   0.0000
    69 H5         -13.8214    -7.8290    -4.7905 H            1 NHW1000   0.0000
    70 H6         -14.7344    -9.8709    -5.3221 H            1 NHW1000   0.0000
    71 H7         -15.2052    -9.4237    -6.8205 H            1 NHW1000   0.0000
    72 H8         -16.6403   -11.2092    -6.0933 H            1 NHW1000   0.0000
    73 H9         -17.5349    -9.8440    -6.1463 H            1 NHW1000   0.0000
    74 H10        -17.8135   -10.0243    -3.8468 H            1 NHW1000   0.0000
    75 HP1        -13.0751    -1.5816    -5.3813 H            1 NHW1000   0.0000
    76 HP2        -12.8111    -2.9223    -6.2754 H            1 NHW1000   0.0000
    77 H13        -15.9108   -11.8438    -1.6691 H            1 NHW1000   0.0000
    78 H14        -17.8350   -11.5105    -0.8849 H            1 NHW1000   0.0000
    79 H15        -16.7748    -9.6954     0.4774 H            1 NHW1000   0.0000
    80 H16        -15.1804    -9.6509     0.8278 H            1 NHW1000   0.0000
    81 H17        -15.4408    -7.8096    -1.0316 H            1 NHW1000   0.0000
    82 H18        -15.7615    -8.3036    -2.5547 H            1 NHW1000   0.0000
    83 H19        -16.9372    -8.3341    -1.4218 H            1 NHW1000   0.0000
    84 H20        -13.5801    -9.3180    -0.9695 H            1 NHW1000   0.0000
    85 H21        -13.7811   -10.9282    -1.1531 H            1 NHW1000   0.0000
    86 H22        -13.8985    -9.9380    -2.4463 H            1 NHW1000   0.0000
    87 H1X        -16.5568    -5.9564     4.6603 H            1 NHW1000   0.0000
    88 H2A        -13.9374    -3.1123     2.1292 H            1 NHW1000   0.0000
    89 H2M1       -12.4540    -1.5236    -3.0441 H            1 NHW1000   0.0000
    90 H2M2       -10.8431    -1.6790    -3.2618 H            1 NHW1000   0.0000
    91 H2X        -18.9507    -7.4831     3.9769 H            1 NHW1000   0.0000
    92 H28        -19.3116    -5.4947     5.7251 H            1 NHW1000   0.0000
    93 H3M1       -10.7702    -3.5812    -1.9289 H            1 NHW1000   0.0000
    94 H3M2       -12.3996    -3.6833    -1.8924 H            1 NHW1000   0.0000
    95 H3X        -18.8983    -8.0968     6.2704 H            1 NHW1000   0.0000
    96 H4M1       -12.5834    -1.8441    -0.4867 H            1 NHW1000   0.0000
    97 H4M2       -11.0508    -1.3696    -0.7909 H            1 NHW1000   0.0000
    98 H4X        -16.2531    -8.5305     6.2659 H            1 NHW1000   0.0000
    99 H5M1       -10.2633    -3.3950     0.3534 H            1 NHW1000   0.0000
   100 H5M2       -11.8103    -3.7113     0.7700 H            1 NHW1000   0.0000
   101 H5X1       -17.9006    -9.8010     4.2583 H            1 NHW1000   0.0000
   102 H5X2       -17.9289   -10.2895     5.8162 H            1 NHW1000   0.0000
   103 H6A1       -16.9008    -5.0024    -1.7196 H            1 NHW1000   0.0000
   104 H6A2       -15.7048    -3.7718    -1.9541 H            1 NHW1000   0.0000
   105 H6M1       -11.0957    -2.6664     2.6456 H            1 NHW1000   0.0000
   106 H6M2       -11.7063    -1.3962     1.8207 H            1 NHW1000   0.0000
   107 H7M1        -9.4472    -0.9167     1.0087 H            1 NHW1000   0.0000
   108 H7M2        -8.8880    -2.0943     1.9922 H            1 NHW1000   0.0000
   109 H8A        -18.4833    -7.5094     1.8857 H            1 NHW1000   0.0000
   110 H8M1        -9.7549    -0.8241     3.8855 H            1 NHW1000   0.0000
   111 H8M2       -10.1011     0.3900     2.8497 H            1 NHW1000   0.0000
   112 H9M1        -7.9743     0.6267     4.0811 H            1 NHW1000   0.0000
   113 H9M2        -7.8720     0.8316     2.4642 H            1 NHW1000   0.0000
   114 HAM1        -7.1446    -1.4754     2.2888 H            1 NHW1000   0.0000
   115 HAM2        -7.0914    -1.5332     3.9199 H            1 NHW1000   0.0000
   116 HBM1        -5.3190    -0.1593     2.1491 H            1 NHW1000   0.0000
   117 HBM2        -4.9326    -1.1304     3.4038 H            1 NHW1000   0.0000
   118 HCM1        -5.4603     0.5877     4.9441 H            1 NHW1000   0.0000
   119 HCM2        -5.9757     1.5522     3.7313 H            1 NHW1000   0.0000
   120 HDM1        -3.7530     1.6612     2.8741 H            1 NHW1000   0.0000
   121 HDM2        -3.2380     0.6980     4.0881 H            1 NHW1000   0.0000
   122 HEM1        -2.7877     3.0120     4.6347 H            1 NHW1000   0.0000
   123 HEM2        -4.3767     3.3574     4.4845 H            1 NHW1000   0.0000
   124 HEM3        -3.8617     2.3943     5.6985 H            1 NHW1000   0.0000
@<TRIPOS>BOND
     1    1    2       1
     2    1   12       1
     3    2    3       1
     4    3    4       1
     5    4    5      am
     6    5    6       2
     7    5    7       1
     8    7    8       1
     9    8    9       1
    10    9   10      am
    11   10   11       2
    12   10   13       1
    13   12   22       1
    14   13   14       1
    15   13   15       1
    16   15   16       1
    17   15   17       1
    18   15   18       1
    19   16   49       1
    20   19   25      ar
    21   19   47      ar
    22   20   21      ar
    23   21   26      ar
    24   21   32       1
    25   21   46       1
    26   22   23       2
    27   22   28       1
    28   24   29       1
    29   24   41       1
    30   24   57       1
    31   25   31      ar
    32   27   32       1
    33   27   38      ar
    34   27   43      ar
    35   27   49       1
    36   28   33       1
    37   29   30       1
    38   29   34       1
    39   31   37      ar
    40   33   39       1
    41   34   35       1
    42   34   40       1
    43   35   36       1
    44   36   52      ar
    45   36   55      ar
    46   36   58      ar
    47   37   42      ar
    48   37   57       1
    49   39   44       1
    50   40   41       1
    51   40   45       1
    52   42   47      ar
    53   42   51       1
    54   44   50       1
    55   45   46       1
    56   47   48       1
    57   50   53       1
    58   51   54       2
    59   53   56       1
    60   54   57       1
    61   56   59       1
    62   59   60       1
    63   60   61       1
    64   61   62       1
    65   62   63       1
    66   63   64       1
    67    2   65       1
    68    2   66       1
    69    3   67       1
    70    3   68       1
    71    4   69       1
    72    7   70       1
    73    7   71       1
    74    8   72       1
    75    8   73       1
    76    9   74       1
    77   12   75       1
    78   12   76       1
    79   13   77       1
    80   14   78       1
    81   16   79       1
    82   16   80       1
    83   17   81       1
    84   17   82       1
    85   17   83       1
    86   18   84       1
    87   18   85       1
    88   18   86       1
    89   64  124       1
    90   24   87       1
    91   25   88       1
    92   28   89       1
    93   28   90       1
    94   29   91       1
    95   30   92       1
    96   33   93       1
    97   33   94       1
    98   34   95       1
    99   64  123       1
   100   39   96       1
   101   39   97       1
   102   40   98       1
   103   44   99       1
   104   44  100       1
   105   45  101       1
   106   45  102       1
   107   48  103       1
   108   48  104       1
   109   50  105       1
   110   50  106       1
   111   64  122       1
   112   53  107       1
   113   53  108       1
   114   54  109       1
   115   63  121       1
   116   56  110       1
   117   56  111       1
   118   59  112       1
   119   59  113       1
   120   60  114       1
   121   60  115       1
   122   61  116       1
   123   61  117       1
   124   62  118       1
   125   62  119       1
   126   63  120       1
@<TRIPOS>SUBSTRUCTURE
     1 NHW1000     1 GROUP             4 A     NHW     0 **** NHW A1000
