@<TRIPOS>MOLECULE
3rim_TPP_1_ligand
   43    44     1     0     0
SMALL
NO_CHARGES


@<TRIPOS>ATOM
     1 N1'         -8.8700   -16.2740    63.6770 N.ar         1 TPP1002   1.0000
     2 C2'         -9.8810   -16.7750    64.3700 C.ar         1 TPP1002   0.0000
     3 CM2        -11.1380   -16.0040    64.3850 C.3          1 TPP1002   0.0000
     4 N3'         -9.8010   -17.9400    65.0350 N.ar         1 TPP1002   0.0000
     5 C4'         -8.6750   -18.6460    64.9940 C.ar         1 TPP1002   0.0000
     6 N4'         -8.6500   -19.7790    65.6500 N.pl3        1 TPP1002   0.0000
     7 C5'         -7.5660   -18.1590    64.2690 C.ar         1 TPP1002   0.0000
     8 C6'         -7.7190   -16.9280    63.6180 C.ar         1 TPP1002   0.0000
     9 C7'         -6.1780   -18.8350    64.1450 C.3          1 TPP1002   0.0000
    10 N3          -5.4910   -18.6670    65.4450 N.2          1 TPP1002   1.0000
    11 C2          -5.5300   -19.6670    66.3600 C.2          1 TPP1002   0.0000
    12 S1          -4.6780   -19.1450    67.7950 S.3          1 TPP1002   0.0000
    13 C5          -4.3070   -17.5440    67.1200 C.2          1 TPP1002   0.0000
    14 C4          -4.8510   -17.5170    65.8280 C.2          1 TPP1002   0.0000
    15 CM4         -4.7090   -16.3020    64.9170 C.3          1 TPP1002   0.0000
    16 C6          -3.5140   -16.4370    67.8660 C.3          1 TPP1002   0.0000
    17 C7          -2.7440   -16.9740    69.0630 C.3          1 TPP1002   0.0000
    18 O7          -2.4930   -15.8990    69.9080 O.3          1 TPP1002   0.0000
    19 PA          -3.0980   -15.7550    71.3340 P.3          1 TPP1002   0.0000
    20 O1A         -4.5370   -15.6850    71.1190 O.co2        1 TPP1002   0.0000
    21 O2A         -2.3160   -14.7450    72.0780 O.co2        1 TPP1002  -1.0000
    22 O3A         -2.8860   -17.2120    72.0330 O.3          1 TPP1002   0.0000
    23 PB          -1.5540   -17.7150    72.6470 P.3          1 TPP1002   0.0000
    24 O1B         -0.7680   -18.4920    71.6510 O.co2        1 TPP1002   0.0000
    25 O2B         -0.8080   -16.5960    73.4460 O.co2        1 TPP1002  -1.0000
    26 O3B         -2.0310   -18.5670    73.8870 O.co2        1 TPP1002  -1.0000
    27 HM21       -11.8176   -16.4853    64.9386 H            1 TPP1002   0.0000
    28 HM22       -10.9695   -15.0993    64.7763 H            1 TPP1002   0.0000
    29 HM23       -11.4793   -15.9046    63.4503 H            1 TPP1002   0.0000
    30 H4'1        -7.8230   -20.3412    65.6456 H            1 TPP1002   0.0000
    31 H4'2        -9.4579   -20.0821    66.1554 H            1 TPP1002   0.0000
    32 H6'         -6.9536   -16.5398    63.1047 H            1 TPP1002   0.0000
    33 H7'1        -5.6478   -18.3979    63.4184 H            1 TPP1002   0.0000
    34 H7'2        -6.2878   -19.8073    63.9388 H            1 TPP1002   0.0000
    35 H9          -5.9723   -20.5551    66.2349 H            1 TPP1002   0.0000
    36 HM41        -4.2100   -15.5812    65.3981 H            1 TPP1002   0.0000
    37 HM42        -4.2072   -16.5610    64.0917 H            1 TPP1002   0.0000
    38 HM43        -5.6167   -15.9672    64.6640 H            1 TPP1002   0.0000
    39 H13         -4.1580   -15.7417    68.1853 H            1 TPP1002   0.0000
    40 H14         -2.8653   -16.0225    67.2277 H            1 TPP1002   0.0000
    41 H15         -1.8818   -17.3807    68.7610 H            1 TPP1002   0.0000
    42 H16         -3.2892   -17.6639    69.5393 H            1 TPP1002   0.0000
    43 H1'         -8.9751   -15.4023    63.1983 H            1 TPP1002   0.0000
@<TRIPOS>BOND
     1    1    2      ar
     2    1    8      ar
     3    2    3       1
     4    2    4      ar
     5    4    5      ar
     6    5    6       1
     7    5    7      ar
     8    7    8      ar
     9    7    9       1
    10    9   10       1
    11   10   11       2
    12   10   14       1
    13   11   12       1
    14   12   13       1
    15   13   14       2
    16   13   16       1
    17   14   15       1
    18   16   17       1
    19   17   18       1
    20   18   19       1
    21   19   20      ar
    22   19   21      ar
    23   19   22       1
    24   22   23       1
    25   23   24      ar
    26   23   25      ar
    27   23   26      ar
    28    3   27       1
    29    3   28       1
    30    3   29       1
    31    6   30       1
    32    6   31       1
    33    8   32       1
    34    9   33       1
    35    9   34       1
    36   11   35       1
    37   15   36       1
    38   15   37       1
    39   15   38       1
    40   16   39       1
    41   16   40       1
    42   17   41       1
    43   17   42       1
    44    1   43       1
@<TRIPOS>SUBSTRUCTURE
     1 TPP1002     1 GROUP             4 A     TPP     0 **** TPP A1002
