@<TRIPOS>MOLECULE
3tl1_JRO_1_ligand
   28    30     1     0     0
SMALL
NO_CHARGES


@<TRIPOS>ATOM
     1 CAA        -17.2920     2.3890   -27.9810 C.3          1 JRO160   0.0000
     2 OAB        -18.3640     1.8630   -23.5080 O.2          1 JRO160   0.0000
     3 OAC        -20.9130    -6.1000   -24.5280 O.3          1 JRO160   0.0000
     4 OAD        -20.2470    -2.3670   -21.6240 O.3          1 JRO160   0.0000
     5 OAE        -20.0030    -4.6380   -26.5880 O.3          1 JRO160  -1.0000
     6 CAF        -20.5980    -4.2660   -23.0240 C.ar         1 JRO160   0.0000
     7 CAG        -18.2190     0.1410   -27.1220 C.2          1 JRO160   0.0000
     8 CAH        -19.1180    -1.9610   -26.2780 C.ar         1 JRO160   0.0000
     9 CAI        -19.2650    -0.8480   -23.7090 C.ar         1 JRO160   0.0000
    10 OAJ        -17.8890     1.9900   -25.6420 O.2          1 JRO160   0.0000
    11 CAK        -17.8070     1.4530   -26.8940 C.2          1 JRO160   0.0000
    12 CAL        -20.5230    -4.8200   -24.3060 C.ar         1 JRO160   0.0000
    13 CAM        -20.1810    -2.9330   -22.8490 C.ar         1 JRO160   0.0000
    14 CAN        -20.0320    -4.0590   -25.3680 C.ar         1 JRO160   0.0000
    15 CAO        -18.3530     1.2630   -24.5920 C.2          1 JRO160   0.0000
    16 CAP        -18.7070    -0.6340   -26.0730 C.ar         1 JRO160   0.0000
    17 CAQ        -19.6920    -2.1640   -23.9220 C.ar         1 JRO160   0.0000
    18 CAR        -19.6170    -2.7260   -25.2060 C.ar         1 JRO160   0.0000
    19 CAS        -18.7870    -0.0690   -24.7840 C.ar         1 JRO160   0.0000
    20 HAA1       -17.0587     3.2733   -27.5764 H            1 JRO160   0.0000
    21 HAA2       -16.4784     1.9915   -28.4052 H            1 JRO160   0.0000
    22 HAA3       -18.0010     2.5164   -28.6746 H            1 JRO160   0.0000
    23 HAC        -21.2577    -6.6560   -23.7717 H            1 JRO160   0.0000
    24 HAD        -19.9521    -1.4204   -21.4940 H            1 JRO160   0.0000
    25 HAF        -20.9388    -4.8027   -22.2521 H            1 JRO160   0.0000
    26 HAG        -18.1639    -0.2453   -28.0427 H            1 JRO160   0.0000
    27 HAH        -19.0560    -2.3652   -27.1906 H            1 JRO160   0.0000
    28 HAI        -19.2989    -0.4575   -22.7890 H            1 JRO160   0.0000
@<TRIPOS>BOND
     1    1   11       1
     2    2   15       2
     3    3   12       1
     4    4   13       1
     5    5   14       1
     6    6   12      ar
     7    6   13      ar
     8    7   11       2
     9    7   16       1
    10    8   16      ar
    11    8   18      ar
    12    9   17      ar
    13    9   19      ar
    14   10   11       1
    15   10   15       1
    16   12   14      ar
    17   13   17      ar
    18   14   18      ar
    19   15   19       1
    20   16   19      ar
    21   17   18      ar
    22    1   20       1
    23    1   21       1
    24    1   22       1
    25    3   23       1
    26    4   24       1
    27    9   28       1
    28    6   25       1
    29    7   26       1
    30    8   27       1
@<TRIPOS>SUBSTRUCTURE
     1 JRO160      1 GROUP             4 A     JRO     0 **** JRO A 160
