@<TRIPOS>MOLECULE
1jv4_TZL_1_ligand
   25    25     1     0     0
SMALL
NO_CHARGES


@<TRIPOS>ATOM
     1 S1           6.1040    -0.4560     9.0900 S.3          1 TZL170   0.0000
     2 C2           7.0910    -1.8780     8.7650 C.3          1 TZL170   0.0000
     3 N3           6.4340    -2.4070     7.8010 N.4          1 TZL170   1.0000
     4 C4           5.0110    -2.1350     7.3270 C.3          1 TZL170   0.0000
     5 C5           4.5810    -0.8810     8.2180 C.3          1 TZL170   0.0000
     6 C6           8.5750    -1.8130     9.1000 C.3          1 TZL170   0.0000
     7 C7           8.6490    -2.7160    10.3960 C.3          1 TZL170   0.0000
     8 C8          10.0800    -3.2540    10.7130 C.3          1 TZL170   0.0000
     9 C9           9.3900    -2.3710     8.1010 C.3          1 TZL170   0.0000
    10 H1           6.7814    -2.4647     9.5133 H            1 TZL170   0.0000
    11 H2           6.4410    -3.3855     8.0073 H            1 TZL170   0.0000
    12 H3           4.4168    -2.9207     7.4989 H            1 TZL170   0.0000
    13 H4           4.9918    -1.9094     6.3530 H            1 TZL170   0.0000
    14 H5           4.2721    -0.1223     7.6445 H            1 TZL170   0.0000
    15 H6           3.8565    -1.1292     8.8611 H            1 TZL170   0.0000
    16 H7           8.8533    -0.8743     9.3036 H            1 TZL170   0.0000
    17 H8           8.0395    -3.4986    10.2694 H            1 TZL170   0.0000
    18 H9           8.3370    -2.1733    11.1758 H            1 TZL170   0.0000
    19 H10         10.0498    -3.8137    11.5412 H            1 TZL170   0.0000
    20 H11         10.4046    -3.8091     9.9472 H            1 TZL170   0.0000
    21 H12         10.7021    -2.4838    10.8537 H            1 TZL170   0.0000
    22 H13         10.3491    -2.3001     8.3751 H            1 TZL170   0.0000
    23 H14          9.1499    -3.3334     7.9739 H            1 TZL170   0.0000
    24 H15          9.2511    -1.8767     7.2429 H            1 TZL170   0.0000
    25 H16          6.9988    -2.2324     6.9944 H            1 TZL170   0.0000
@<TRIPOS>BOND
     1    1    2       1
     2    1    5       1
     3    2    3       1
     4    2    6       1
     5    3    4       1
     6    4    5       1
     7    6    7       1
     8    6    9       1
     9    7    8       1
    10    2   10       1
    11    3   11       1
    12    4   12       1
    13    4   13       1
    14    5   14       1
    15    5   15       1
    16    6   16       1
    17    7   17       1
    18    7   18       1
    19    8   19       1
    20    8   20       1
    21    8   21       1
    22    9   22       1
    23    9   23       1
    24    9   24       1
    25    3   25       1
@<TRIPOS>SUBSTRUCTURE
     1 TZL170      1 GROUP             4 A     TZL     0 **** TZL A 170
