@<TRIPOS>MOLECULE
2gjl_FMN_1_ligand
   50    52     1     0     0
SMALL
NO_CHARGES


@<TRIPOS>ATOM
     1 N1          29.8740    36.3840    24.1420 N.2          1 FMN1904   0.0000
     2 C2          29.6570    36.9500    22.9030 C.2          1 FMN1904   0.0000
     3 O2          28.5620    37.3320    22.5340 O.2          1 FMN1904   0.0000
     4 N3          30.7960    37.0600    22.0710 N.pl3        1 FMN1904   0.0000
     5 C4          32.1360    36.6530    22.3700 C.2          1 FMN1904   0.0000
     6 O4          33.0240    36.8090    21.5400 O.2          1 FMN1904   0.0000
     7 C4A         32.3020    36.0810    23.6440 C.2          1 FMN1904   0.0000
     8 N5          33.4850    35.6000    24.1610 N.2          1 FMN1904   0.0000
     9 C5A         33.7640    35.0030    25.3860 C.ar         1 FMN1904   0.0000
    10 C6          35.1210    34.5410    25.7130 C.ar         1 FMN1904   0.0000
    11 C7          35.3540    33.8960    27.0130 C.ar         1 FMN1904   0.0000
    12 C7M         36.7790    33.4210    27.3010 C.3          1 FMN1904   0.0000
    13 C8          34.2220    33.7340    27.9660 C.ar         1 FMN1904   0.0000
    14 C8M         34.3250    33.0680    29.3770 C.3          1 FMN1904   0.0000
    15 C9          32.9080    34.2180    27.5780 C.ar         1 FMN1904   0.0000
    16 C9A         32.6590    34.8560    26.2790 C.ar         1 FMN1904   0.0000
    17 N10         31.4080    35.3470    25.7940 N.pl3        1 FMN1904   0.0000
    18 C10         31.1330    35.9590    24.5160 C.2          1 FMN1904   0.0000
    19 C1'         30.1950    35.1920    26.7340 C.3          1 FMN1904   0.0000
    20 C2'         29.5690    33.7800    26.6700 C.3          1 FMN1904   0.0000
    21 O2'         29.0810    33.5000    25.3620 O.3          1 FMN1904   0.0000
    22 C3'         28.4050    33.6140    27.6610 C.3          1 FMN1904   0.0000
    23 O3'         27.3210    34.4580    27.3220 O.3          1 FMN1904   0.0000
    24 C4'         28.8680    33.8340    29.1490 C.3          1 FMN1904   0.0000
    25 O4'         30.1170    33.1480    29.4050 O.3          1 FMN1904   0.0000
    26 C5'         27.9050    33.2770    30.1620 C.3          1 FMN1904   0.0000
    27 O5'         28.4140    33.4590    31.4640 O.3          1 FMN1904   0.0000
    28 P           29.1360    32.3230    32.2870 P.3          1 FMN1904   0.0000
    29 O1P         28.6420    31.0060    31.8030 O.co2        1 FMN1904   0.0000
    30 O2P         30.5690    32.5280    31.9950 O.co2        1 FMN1904  -1.0000
    31 O3P         28.8280    32.6830    33.6840 O.co2        1 FMN1904  -1.0000
    32 H1          30.6483    37.4690    21.1705 H            1 FMN1904   0.0000
    33 H2          35.8712    34.6633    25.0632 H            1 FMN1904   0.0000
    34 H7M1        36.8137    33.0018    28.2082 H            1 FMN1904   0.0000
    35 H7M2        37.0519    32.7489    26.6126 H            1 FMN1904   0.0000
    36 H7M3        37.4032    34.2017    27.2704 H            1 FMN1904   0.0000
    37 H8M1        33.4279    33.0822    29.8186 H            1 FMN1904   0.0000
    38 H8M2        34.6325    32.1217    29.2773 H            1 FMN1904   0.0000
    39 H8M3        34.9805    33.5742    29.9375 H            1 FMN1904   0.0000
    40 H9          32.1467    34.1130    28.2179 H            1 FMN1904   0.0000
    41 H1'1        29.5002    35.8623    26.4733 H            1 FMN1904   0.0000
    42 H1'2        30.4926    35.3680    27.6723 H            1 FMN1904   0.0000
    43 H2'         30.2756    33.1092    26.8953 H            1 FMN1904   0.0000
    44 H13         29.8356    33.5473    24.7075 H            1 FMN1904   0.0000
    45 H3'         28.0824    32.6704    27.5860 H            1 FMN1904   0.0000
    46 H15         27.6224    35.4113    27.3404 H            1 FMN1904   0.0000
    47 H4'         28.9901    34.8126    29.3144 H            1 FMN1904   0.0000
    48 H17         30.1559    32.8739    30.3659 H            1 FMN1904   0.0000
    49 H5'1        27.7735    32.3004    29.9916 H            1 FMN1904   0.0000
    50 H5'2        27.0281    33.7506    30.0803 H            1 FMN1904   0.0000
@<TRIPOS>BOND
     1    1    2       1
     2    1   18       2
     3    2    3       2
     4    2    4       1
     5    4    5       1
     6    5    6       2
     7    5    7       1
     8    7    8       2
     9    7   18       1
    10    8    9       1
    11    9   10      ar
    12    9   16      ar
    13   10   11      ar
    14   11   12       1
    15   11   13      ar
    16   13   14       1
    17   13   15      ar
    18   15   16      ar
    19   16   17       1
    20   17   18       1
    21   17   19       1
    22   19   20       1
    23   20   21       1
    24   20   22       1
    25   22   23       1
    26   22   24       1
    27   24   25       1
    28   24   26       1
    29   26   27       1
    30   27   28       1
    31   28   29      ar
    32   28   30      ar
    33   28   31      ar
    34    4   32       1
    35   10   33       1
    36   12   34       1
    37   12   35       1
    38   12   36       1
    39   14   37       1
    40   14   38       1
    41   14   39       1
    42   15   40       1
    43   19   41       1
    44   19   42       1
    45   20   43       1
    46   21   44       1
    47   22   45       1
    48   23   46       1
    49   24   47       1
    50   25   48       1
    51   26   49       1
    52   26   50       1
@<TRIPOS>SUBSTRUCTURE
     1 FMN1904     1 GROUP             4 A     FMN     0 **** FMN A1904
