@<TRIPOS>MOLECULE
3dme_FAD_1_ligand
   84    89     1     0     0
SMALL
NO_CHARGES


@<TRIPOS>ATOM
     1 PA          10.7600    43.5820    19.7430 P.3          1 FAD500   0.0000
     2 O1A         11.5620    42.6760    20.6520 O.co2        1 FAD500   0.0000
     3 O2A          9.6420    42.9090    18.9500 O.co2        1 FAD500  -1.0000
     4 O5B         11.7420    44.2870    18.6920 O.3          1 FAD500   0.0000
     5 C5B         13.0350    44.7300    19.0570 C.3          1 FAD500   0.0000
     6 C4B         13.8990    44.4750    17.8190 C.3          1 FAD500   0.0000
     7 O4B         15.1970    45.0010    18.0190 O.3          1 FAD500   0.0000
     8 C3B         14.0520    42.9730    17.5330 C.3          1 FAD500   0.0000
     9 O3B         13.4800    42.6250    16.2880 O.3          1 FAD500   0.0000
    10 C2B         15.5580    42.7370    17.5490 C.3          1 FAD500   0.0000
    11 O2B         15.9700    41.8130    16.5610 O.3          1 FAD500   0.0000
    12 C1B         16.0890    44.1330    17.3130 C.3          1 FAD500   0.0000
    13 N9A         17.4080    44.3730    17.8870 N.pl3        1 FAD500   0.0000
    14 C8A         17.8720    44.1000    19.1480 C.2          1 FAD500   0.0000
    15 N7A         19.1450    44.5800    19.2340 N.2          1 FAD500   0.0000
    16 C5A         19.4870    45.1400    18.0300 C.ar         1 FAD500   0.0000
    17 C6A         20.6330    45.7730    17.5530 C.ar         1 FAD500   0.0000
    18 N6A         21.7570    45.8890    18.2930 N.pl3        1 FAD500   0.0000
    19 N1A         20.6290    46.2450    16.2450 N.ar         1 FAD500   0.0000
    20 C2A         19.5210    46.1180    15.4320 C.ar         1 FAD500   0.0000
    21 N3A         18.3750    45.5000    15.9130 N.ar         1 FAD500   0.0000
    22 C4A         18.3830    45.0290    17.1880 C.ar         1 FAD500   0.0000
    23 N1           1.3100    42.9220    24.4500 N.2          1 FAD500   0.0000
    24 C2          -0.0440    43.0880    24.2260 C.2          1 FAD500   0.0000
    25 O2          -0.4740    44.2160    23.9840 O.2          1 FAD500   0.0000
    26 N3          -0.9110    42.0150    24.3020 N.pl3        1 FAD500   0.0000
    27 C4          -0.4310    40.7670    24.6290 C.2          1 FAD500   0.0000
    28 O4          -1.1890    39.7910    24.6780 O.2          1 FAD500   0.0000
    29 C4X          0.9250    40.5880    24.8670 C.2          1 FAD500   0.0000
    30 N5           1.3910    39.3320    25.2130 N.2          1 FAD500   0.0000
    31 C5X          2.7570    39.1590    25.4160 C.ar         1 FAD500   0.0000
    32 C6           3.2420    37.8860    25.7570 C.ar         1 FAD500   0.0000
    33 C7           4.6140    37.7110    25.9530 C.ar         1 FAD500   0.0000
    34 C7M          5.1160    36.3380    26.3230 C.3          1 FAD500   0.0000
    35 C8           5.5010    38.7860    25.8330 C.ar         1 FAD500   0.0000
    36 C8M          6.9790    38.6060    26.0620 C.3          1 FAD500   0.0000
    37 C9           5.0150    40.0450    25.5080 C.ar         1 FAD500   0.0000
    38 C9A          3.6370    40.2310    25.3000 C.ar         1 FAD500   0.0000
    39 N10          3.1410    41.4830    24.9480 N.pl3        1 FAD500   0.0000
    40 C10          1.7960    41.6610    24.7580 C.2          1 FAD500   0.0000
    41 C1'          4.0490    42.6320    24.6330 C.3          1 FAD500   0.0000
    42 C2'          4.3990    42.7660    23.1530 C.3          1 FAD500   0.0000
    43 O2'          4.6680    41.4760    22.6100 O.3          1 FAD500   0.0000
    44 C3'          5.6230    43.6860    23.0990 C.3          1 FAD500   0.0000
    45 O3'          5.4230    44.8270    23.9390 O.3          1 FAD500   0.0000
    46 C4'          6.0000    44.1330    21.6930 C.3          1 FAD500   0.0000
    47 O4'          6.1280    43.0550    20.7600 O.3          1 FAD500   0.0000
    48 C5'          7.3690    44.7680    21.8280 C.3          1 FAD500   0.0000
    49 O5'          7.7680    45.1980    20.5450 O.3          1 FAD500   0.0000
    50 P            9.1800    45.9570    20.4990 P.3          1 FAD500   0.0000
    51 O1P          9.3150    46.5560    19.1370 O.co2        1 FAD500   0.0000
    52 O2P          9.3980    46.9190    21.5970 O.co2        1 FAD500  -1.0000
    53 O3P         10.2600    44.7630    20.7040 O.3          1 FAD500   0.0000
    54 H5B1        13.3779    44.2099    19.8392 H            1 FAD500   0.0000
    55 H5B2        13.0229    45.7039    19.2837 H            1 FAD500   0.0000
    56 H4B         13.4809    44.9206    17.0274 H            1 FAD500   0.0000
    57 H3B         13.6194    42.4442    18.2632 H            1 FAD500   0.0000
    58 H5          13.9347    43.1352    15.5580 H            1 FAD500   0.0000
    59 H2B         15.8408    42.4153    18.4526 H            1 FAD500   0.0000
    60 H7          15.7216    42.1594    15.6564 H            1 FAD500   0.0000
    61 H1B         16.0874    44.3481    16.3364 H            1 FAD500   0.0000
    62 H8A         17.3674    43.6328    19.8740 H            1 FAD500   0.0000
    63 H6A1        22.5593    46.3507    17.9147 H            1 FAD500   0.0000
    64 H6A2        21.7869    45.5132    19.2192 H            1 FAD500   0.0000
    65 H2A         19.5438    46.4711    14.4967 H            1 FAD500   0.0000
    66 H13         -1.8857    42.1448    24.1198 H            1 FAD500   0.0000
    67 H14          2.6134    37.1149    25.8582 H            1 FAD500   0.0000
    68 H7M1         6.1099    36.3642    26.4301 H            1 FAD500   0.0000
    69 H7M2         4.6955    36.0500    27.1833 H            1 FAD500   0.0000
    70 H7M3         4.8755    35.6894    25.6009 H            1 FAD500   0.0000
    71 H8M1         7.4455    39.4808    25.9315 H            1 FAD500   0.0000
    72 H8M2         7.1346    38.2811    26.9949 H            1 FAD500   0.0000
    73 H8M3         7.3380    37.9366    25.4116 H            1 FAD500   0.0000
    74 H21          5.6436    40.8180    25.4220 H            1 FAD500   0.0000
    75 H1'1         4.8985    42.5102    25.1463 H            1 FAD500   0.0000
    76 H1'2         3.6002    43.4760    24.9267 H            1 FAD500   0.0000
    77 H2'          3.6368    43.1877    22.6618 H            1 FAD500   0.0000
    78 H25          5.6029    41.4517    22.2558 H            1 FAD500   0.0000
    79 H3'          6.3987    43.1744    23.4686 H            1 FAD500   0.0000
    80 H27          6.3052    45.1418    24.2893 H            1 FAD500   0.0000
    81 H4'          5.3400    44.8044    21.3559 H            1 FAD500   0.0000
    82 H29          6.3757    43.4189    19.8621 H            1 FAD500   0.0000
    83 H5'1         8.0221    44.0984    22.1817 H            1 FAD500   0.0000
    84 H5'2         7.3226    45.5493    22.4504 H            1 FAD500   0.0000
@<TRIPOS>BOND
     1    1    2      ar
     2    1    3      ar
     3    1    4       1
     4    1   53       1
     5    4    5       1
     6    5    6       1
     7    6    7       1
     8    6    8       1
     9    7   12       1
    10    8    9       1
    11    8   10       1
    12   10   11       1
    13   10   12       1
    14   12   13       1
    15   13   14       1
    16   13   22       1
    17   14   15       2
    18   15   16       1
    19   16   17      ar
    20   16   22      ar
    21   17   18       1
    22   17   19      ar
    23   19   20      ar
    24   20   21      ar
    25   21   22      ar
    26   23   24       1
    27   23   40       2
    28   24   25       2
    29   24   26       1
    30   26   27       1
    31   27   28       2
    32   27   29       1
    33   29   30       2
    34   29   40       1
    35   30   31       1
    36   31   32      ar
    37   31   38      ar
    38   32   33      ar
    39   33   34       1
    40   33   35      ar
    41   35   36       1
    42   35   37      ar
    43   37   38      ar
    44   38   39       1
    45   39   40       1
    46   39   41       1
    47   41   42       1
    48   42   43       1
    49   42   44       1
    50   44   45       1
    51   44   46       1
    52   46   47       1
    53   46   48       1
    54   48   49       1
    55   49   50       1
    56   50   51      ar
    57   50   52      ar
    58   50   53       1
    59   48   84       1
    60    5   54       1
    61    5   55       1
    62    6   56       1
    63    8   57       1
    64    9   58       1
    65   10   59       1
    66   11   60       1
    67   12   61       1
    68   14   62       1
    69   18   63       1
    70   18   64       1
    71   20   65       1
    72   26   66       1
    73   32   67       1
    74   34   68       1
    75   34   69       1
    76   34   70       1
    77   36   71       1
    78   36   72       1
    79   36   73       1
    80   37   74       1
    81   41   75       1
    82   41   76       1
    83   42   77       1
    84   43   78       1
    85   44   79       1
    86   45   80       1
    87   46   81       1
    88   47   82       1
    89   48   83       1
@<TRIPOS>SUBSTRUCTURE
     1 FAD500      1 GROUP             4 A     FAD     0 **** FAD A 500
