@<TRIPOS>MOLECULE
./coach420/2var/ligand.pdb
 77 81 0 0 0
SMALL
GASTEIGER

@<TRIPOS>ATOM
      1  O1B      -32.1380   20.3730    5.9000 O.3   1313  KDG1313    -0.2177
      2  C1       -32.8520   19.1310    5.9830 C.3   1313  KDG1313     0.2148
      3  C2       -32.0270   18.1330    6.7840 C.3   1313  KDG1313     0.0686
      4  O2       -31.2490   18.8680    7.7380 O.3   1313  KDG1313    -0.2205
      5  C3       -32.9530   17.1190    7.4730 C.3   1313  KDG1313     0.0659
      6  O3       -32.4940   15.7650    7.2550 O.3   1313  KDG1313    -0.1917
      7  C4       -33.2250   17.4030    8.9770 C.3   1313  KDG1313     0.0334
      8  O5       -31.0530   16.6190    9.7700 O.3   1313  KDG1313    -0.1577
      9  C5       -32.0340   17.3350    9.9600 C.3   1313  KDG1313     0.1245
     10  C6       -32.0740   18.1830   11.2300 C.3   1313  KDG1313     0.3619
     11  O6A      -33.0700   18.9110   11.4130 O.3   1313  KDG1313    -0.1811
     12  O6B      -31.1070   18.1100   12.0160 O.3   1313  KDG1313    -0.1865
     13  O1B      -31.5040   19.6720    6.1400 O.3   1314  KDF1314    -0.2202
     14  C1       -32.5080   18.6490    6.2640 C.3   1314  KDF1314     0.1873
     15  C2       -32.0210   17.7270    7.4250 C.3   1314  KDF1314     0.1573
     16  O2       -31.8610   18.4840    8.6700 O.3   1314  KDF1314    -0.1890
     17  C3       -33.0110   16.6410    7.8230 C.3   1314  KDF1314     0.1576
     18  O3       -32.7330   15.4480    7.0680 O.3   1314  KDF1314    -0.0347
     19  C4       -32.7110   16.4190    9.3410 C.3   1314  KDF1314     0.0131
     20  O5       -30.3390   17.0290    9.9050 O.3   1314  KDF1314    -0.0322
     21  C6       -32.1090   18.1810   11.0140 C.3   1314  KDF1314     0.3058
     22  O6A      -32.9520   19.0960   10.9490 O.3   1314  KDF1314    -0.1865
     23  C5       -31.7000   17.5170    9.7080 C.3   1314  KDF1314     0.3087
     24  O6B      -31.5730   17.7420   12.0360 O.3   1314  KDF1314    -0.1811
     25  O1G      -32.2160   21.2880    3.4990 O.3   1315  ANP1315     0.0000
     26  O2G      -32.3910   22.9250    5.2740 O.3   1315  ANP1315     0.0000
     27  O3G      -34.4650   21.3740    4.9230 O.3   1315  ANP1315     0.0000
     28  PB       -33.4550   24.6870    3.1290 P.3   1315  ANP1315     0.4952
     29  O1B      -31.9210   24.6920    3.6750 O.2   1315  ANP1315    -0.2323
     30  O2B      -34.4160   25.4910    3.9710 O.3   1315  ANP1315    -0.1234
     31  N3B      -33.9090   23.1160    3.0020 N.3   1315  ANP1315    -0.0162
     32  PA       -34.1760   26.2670    0.8510 P.3   1315  ANP1315     0.3305
     33  O1A      -33.2450   27.5430    0.7750 O.3   1315  ANP1315    -0.1651
     34  O2A      -35.4620   26.6250    1.5070 O.3   1315  ANP1315    -0.1392
     35  O3A      -33.2580   25.2010    1.6450 O.3   1315  ANP1315    -0.1265
     36  O5'      -34.3580   25.6750   -0.6380 O.3   1315  ANP1315    -0.1891
     37  C5'      -33.2950   25.5670   -1.6080 C.3   1315  ANP1315     0.0383
     38  C4'      -33.9270   25.4670   -3.0420 C.3   1315  ANP1315     0.1849
     39  O4'      -35.1480   24.6630   -2.9230 O.3   1315  ANP1315    -0.2188
     40  C3'      -34.4750   26.7400   -3.7300 C.3   1315  ANP1315     0.2174
     41  O3'      -33.4460   27.5820   -4.2860 O.3   1315  ANP1315    -0.2175
     42  C2'      -35.3220   26.1100   -4.8410 C.3   1315  ANP1315     0.2175
     43  O2'      -34.5000   25.6700   -5.9440 O.3   1315  ANP1315    -0.2175
     44  C1'      -35.9490   24.9000   -4.1240 C.3   1315  ANP1315     0.1447
     45  N9       -37.3480   25.1610   -3.6540 N.3   1315  ANP1315    -0.1298
     46  C8       -37.7240   25.3110   -2.3790 C.3   1315  ANP1315     0.1094
     47  N7       -39.0370   25.5400   -2.3390 N.3   1315  ANP1315    -0.1312
     48  C5       -39.5020   25.5160   -3.5870 C.3   1315  ANP1315     0.0587
     49  C6       -40.7700   25.6820   -4.1430 C.3   1315  ANP1315     0.1839
     50  N6       -41.8160   25.9010   -3.3480 N.3   1315  ANP1315    -0.1134
     51  N1       -40.9110   25.6000   -5.4840 N.3   1315  ANP1315    -0.1412
     52  C2       -39.8550   25.3670   -6.2640 C.3   1315  ANP1315     0.1448
     53  N3       -38.6300   25.2060   -5.7620 N.3   1315  ANP1315    -0.1133
     54  C4       -38.4270   25.2760   -4.4300 C.3   1315  ANP1315     0.1137
     55  P        -35.1620   26.3730    0.8430 P.3   1316  AMP1316     0.3331
     56  O1P      -34.4100   25.4070    1.7400 O.3   1316  AMP1316    -0.1621
     57  O2P      -36.6720   26.3610    1.0230 O.3   1316  AMP1316    -0.0289
     58  O3P      -34.5800   27.7670    0.8100 O.3   1316  AMP1316    -0.1650
     59  O5'      -34.8760   25.7800   -0.6180 O.3   1316  AMP1316    -0.0346
     60  C5'      -33.5500   25.4930   -1.0810 C.3   1316  AMP1316     0.1854
     61  C4'      -33.6330   25.4650   -2.5990 C.3   1316  AMP1316     0.0383
     62  O4'      -34.5450   24.4250   -2.9920 O.3   1316  AMP1316    -0.2203
     63  C3'      -34.2330   26.7510   -3.1860 C.3   1316  AMP1316     0.2148
     64  O3'      -33.2710   27.7830   -3.4440 O.3   1316  AMP1316    -0.2176
     65  C2'      -34.9820   26.2650   -4.4180 C.3   1316  AMP1316     0.2175
     66  O2'      -34.1220   26.0590   -5.5510 O.3   1316  AMP1316    -0.2175
     67  C1'      -35.4950   24.9070   -3.9590 C.3   1316  AMP1316     0.2025
     68  N9       -36.8690   25.0220   -3.3840 N.3   1316  AMP1316    -0.1285
     69  C8       -37.2110   24.9790   -2.0840 C.3   1316  AMP1316     0.0220
     70  N7       -38.5480   25.1200   -1.9330 N.3   1316  AMP1316    -0.1314
     71  C5       -39.1000   25.2560   -3.1650 C.3   1316  AMP1316     0.1136
     72  C6       -40.4680   25.4440   -3.7460 C.3   1316  AMP1316     0.1287
     73  N6       -41.5770   25.5050   -2.9630 N.3   1316  AMP1316    -0.1284
     74  N1       -40.5750   25.5380   -5.1020 N.3   1316  AMP1316    -0.1684
     75  C2       -39.4970   25.4590   -5.9160 C.3   1316  AMP1316     0.1853
     76  N3       -38.2330   25.2920   -5.4560 N.3   1316  AMP1316    -0.1299
     77  C4       -37.9790   25.1880   -4.1200 C.3   1316  AMP1316     0.1270
@<TRIPOS>BOND
     1     1     2    1
     2     1    13    1
     3     2    14    1
     4     3    14    1
     5     3    15    1
     6     4    15    1
     7     4    16    1
     8     5    15    1
     9     5    17    1
    10     6    18    1
    11     6    17    1
    12     7    17    1
    13     7    19    1
    14     8    23    1
    15     8    20    1
    16     9    19    1
    17     9    23    1
    18     9    21    1
    19    10    11    1
    20    10    24    1
    21    11    22    1
    22    12    24    1
    23    13    14    1
    24    16    23    1
    25    21    22    1
    26    28    35    1
    27    28    31    1
    28    28    29    2
    29    28    30    1
    30    32    55    1
    31    32    56    1
    32    33    58    1
    33    34    55    1
    34    34    57    1
    35    35    56    1
    36    36    60    1
    37    36    59    1
    38    37    61    1
    39    37    60    1
    40    38    63    1
    41    38    62    1
    42    38    61    1
    43    39    67    1
    44    39    62    1
    45    40    65    1
    46    40    41    1
    47    40    63    1
    48    41    64    1
    49    42    66    1
    50    42    65    1
    51    43    66    1
    52    44    67    1
    53    44    68    1
    54    45    77    1
    55    45    68    1
    56    46    69    1
    57    46    70    1
    58    47    71    1
    59    47    70    1
    60    48    54    1
    61    48    72    1
    62    48    71    1
    63    49    74    1
    64    49    72    1
    65    49    50    1
    66    50    73    1
    67    51    52    1
    68    51    74    1
    69    52    75    1
    70    53    75    1
    71    53    76    1
    72    54    76    1
    73    54    77    1
    74    55    58    1
    75    63    64    1
    76    71    77    1
    77    72    73    1
    78    74    75    1
    79    43    65    1
    80    33    32    1
    81    21    12    1
