@<TRIPOS>MOLECULE
2wm4_VGJ_1_ligand
   61    60     1     0     0
SMALL
NO_CHARGES


@<TRIPOS>ATOM
     1 O1          -1.3730     8.7620   -15.8010 O.co2        1 VGJ1429   0.0000
     2 C15         -1.9290     8.9120   -14.6650 C.2          1 VGJ1429   0.0000
     3 O2          -1.4060     9.6840   -13.8180 O.co2        1 VGJ1429  -1.0000
     4 C14         -3.2170     8.1370   -14.2780 C.3          1 VGJ1429   0.0000
     5 C13         -4.5280     8.9400   -13.9680 C.3          1 VGJ1429   0.0000
     6 C16         -4.3020    10.1250   -13.0170 C.3          1 VGJ1429   0.0000
     7 C12         -5.7450     8.0710   -13.5090 C.3          1 VGJ1429   0.0000
     8 C11         -6.3750     8.3960   -12.1150 C.3          1 VGJ1429   0.0000
     9 C10         -7.8640     8.0520   -11.8540 C.3          1 VGJ1429   0.0000
    10 C9          -8.1210     6.8450   -10.9210 C.3          1 VGJ1429   0.0000
    11 C17         -7.9950     7.1820    -9.4310 C.3          1 VGJ1429   0.0000
    12 C8          -9.4760     6.1870   -11.2390 C.3          1 VGJ1429   0.0000
    13 C7          -9.8180     4.8440   -10.5540 C.3          1 VGJ1429   0.0000
    14 C6         -10.7170     3.9300   -11.4310 C.3          1 VGJ1429   0.0000
    15 C5         -11.9700     3.2780   -10.8110 C.3          1 VGJ1429   0.0000
    16 C18        -12.6880     4.1980    -9.8490 C.3          1 VGJ1429   0.0000
    17 C4         -13.0710     2.9420   -11.8250 C.3          1 VGJ1429   0.0000
    18 C3         -12.7280     2.4100   -13.2160 C.3          1 VGJ1429   0.0000
    19 C2         -13.9370     1.6670   -13.7850 C.3          1 VGJ1429   0.0000
    20 C1         -13.7800     1.3030   -15.2420 C.3          1 VGJ1429   0.0000
    21 C19        -14.0590     2.4960   -16.1460 C.3          1 VGJ1429   0.0000
    22 C20        -14.5970     0.0680   -15.6240 C.3          1 VGJ1429   0.0000
    23 H1          -3.0019     7.6019   -13.4610 H            1 VGJ1429   0.0000
    24 H2          -3.4251     7.5189   -15.0360 H            1 VGJ1429   0.0000
    25 H3          -4.8040     9.3462   -14.8391 H            1 VGJ1429   0.0000
    26 H4          -5.1701    10.5953   -12.8583 H            1 VGJ1429   0.0000
    27 H5          -3.9405     9.7899   -12.1469 H            1 VGJ1429   0.0000
    28 H6          -3.6482    10.7612   -13.4267 H            1 VGJ1429   0.0000
    29 H7          -5.4420     7.1183   -13.4867 H            1 VGJ1429   0.0000
    30 H8          -6.4646     8.1760   -14.1954 H            1 VGJ1429   0.0000
    31 H9          -6.2741     9.3806   -11.9722 H            1 VGJ1429   0.0000
    32 H10         -5.8378     7.9031   -11.4305 H            1 VGJ1429   0.0000
    33 H11         -8.2929     7.8554   -12.7357 H            1 VGJ1429   0.0000
    34 H12         -8.2973     8.8547   -11.4442 H            1 VGJ1429   0.0000
    35 H13         -7.4152     6.1666   -11.1247 H            1 VGJ1429   0.0000
    36 H14         -8.1725     6.3616    -8.8875 H            1 VGJ1429   0.0000
    37 H15         -7.0710     7.5140    -9.2413 H            1 VGJ1429   0.0000
    38 H16         -8.6593     7.8903    -9.1921 H            1 VGJ1429   0.0000
    39 H17         -9.5050     6.0314   -12.2264 H            1 VGJ1429   0.0000
    40 H18        -10.1892     6.8397   -10.9833 H            1 VGJ1429   0.0000
    41 H19        -10.2971     5.0356    -9.6974 H            1 VGJ1429   0.0000
    42 H20         -8.9654     4.3596   -10.3579 H            1 VGJ1429   0.0000
    43 H21        -10.1377     3.1868   -11.7657 H            1 VGJ1429   0.0000
    44 H22        -11.0289     4.4833   -12.2034 H            1 VGJ1429   0.0000
    45 H23        -11.7017     2.4438   -10.3292 H            1 VGJ1429   0.0000
    46 H24        -13.4895     3.7305    -9.4761 H            1 VGJ1429   0.0000
    47 H25        -12.0706     4.4477    -9.1030 H            1 VGJ1429   0.0000
    48 H26        -12.9786     5.0241   -10.3319 H            1 VGJ1429   0.0000
    49 H27        -13.5950     3.7823   -11.9638 H            1 VGJ1429   0.0000
    50 H28        -13.6536     2.2533   -11.3935 H            1 VGJ1429   0.0000
    51 H29        -11.9509     1.7839   -13.1519 H            1 VGJ1429   0.0000
    52 H30        -12.4921     3.1737   -13.8169 H            1 VGJ1429   0.0000
    53 H31        -14.7431     2.2508   -13.6884 H            1 VGJ1429   0.0000
    54 H32        -14.0694     0.8263   -13.2599 H            1 VGJ1429   0.0000
    55 H33        -12.8185     1.0622   -15.3747 H            1 VGJ1429   0.0000
    56 H34        -13.9471     2.2235   -17.1016 H            1 VGJ1429   0.0000
    57 H35        -14.9952     2.8148   -15.9978 H            1 VGJ1429   0.0000
    58 H36        -13.4180     3.2332   -15.9323 H            1 VGJ1429   0.0000
    59 H37        -14.4621    -0.1340   -16.5941 H            1 VGJ1429   0.0000
    60 H38        -14.2968    -0.7128   -15.0761 H            1 VGJ1429   0.0000
    61 H39        -15.5663     0.2432   -15.4517 H            1 VGJ1429   0.0000
@<TRIPOS>BOND
     1    1    2      ar
     2    2    3      ar
     3    2    4       1
     4    4    5       1
     5    5    6       1
     6    5    7       1
     7    7    8       1
     8    8    9       1
     9    9   10       1
    10   10   11       1
    11   10   12       1
    12   12   13       1
    13   13   14       1
    14   14   15       1
    15   15   16       1
    16   15   17       1
    17   17   18       1
    18   18   19       1
    19   19   20       1
    20   20   21       1
    21   20   22       1
    22   22   61       1
    23    4   23       1
    24    4   24       1
    25    5   25       1
    26    6   26       1
    27    6   27       1
    28    6   28       1
    29    7   29       1
    30    7   30       1
    31    8   31       1
    32    8   32       1
    33    9   33       1
    34    9   34       1
    35   10   35       1
    36   11   36       1
    37   11   37       1
    38   11   38       1
    39   12   39       1
    40   12   40       1
    41   13   41       1
    42   13   42       1
    43   14   43       1
    44   14   44       1
    45   15   45       1
    46   16   46       1
    47   16   47       1
    48   16   48       1
    49   17   49       1
    50   17   50       1
    51   18   51       1
    52   18   52       1
    53   19   53       1
    54   19   54       1
    55   20   55       1
    56   21   56       1
    57   21   57       1
    58   21   58       1
    59   22   59       1
    60   22   60       1
@<TRIPOS>SUBSTRUCTURE
     1 VGJ1429     1 GROUP             4 A     VGJ     0 **** VGJ A1429
