@<TRIPOS>MOLECULE
2bbw_GP5_2_ligand
   83    88     1     0     0
SMALL
NO_CHARGES


@<TRIPOS>ATOM
     1 O6          10.1090     5.9500     0.5970 O.2          1 GP5225   0.0000
     2 C6          11.2310     5.9730     1.1020 C.2          1 GP5225   0.0000
     3 N1          11.5710     6.9590     2.0210 N.pl3        1 GP5225   0.0000
     4 C2          12.8570     6.9690     2.5660 C.2          1 GP5225   0.0000
     5 N2          13.1210     7.9240     3.4430 N.pl3        1 GP5225   0.0000
     6 N3          13.7740     6.0220     2.2240 N.2          1 GP5225   0.0000
     7 C4          13.4630     5.0510     1.3320 C.2          1 GP5225   0.0000
     8 C5          12.1830     5.0220     0.7630 C.2          1 GP5225   0.0000
     9 N7          12.1240     3.9930    -0.0710 N.2          1 GP5225   0.0000
    10 C8          13.2960     3.3770    -0.0440 C.2          1 GP5225   0.0000
    11 N9          14.1200     4.0000     0.8050 N.pl3        1 GP5225   0.0000
    12 C1'         15.5170     3.4950     0.9950 C.3          1 GP5225   0.0000
    13 O4'         16.0190     3.8150    -0.3070 O.3          1 GP5225   0.0000
    14 C2'         16.5440     4.1620     1.8840 C.3          1 GP5225   0.0000
    15 O2'         16.5610     3.5180     3.1660 O.3          1 GP5225   0.0000
    16 C3'         17.8400     3.8530     1.1280 C.3          1 GP5225   0.0000
    17 O3'         18.4620     2.7090     1.7100 O.3          1 GP5225   0.0000
    18 C4'         17.3880     3.4940    -0.2920 C.3          1 GP5225   0.0000
    19 C5'         17.8850     4.4270    -1.3990 C.3          1 GP5225   0.0000
    20 O5'         18.3790     3.6930    -2.5390 O.3          1 GP5225   0.0000
    21 PCC         17.4870     3.1090    -3.8070 P.3          1 GP5225   0.0000
    22 OAN         16.1020     2.5370    -3.1920 O.co2        1 GP5225   0.0000
    23 OAE         17.2390     4.1340    -4.8380 O.co2        1 GP5225  -1.0000
    24 OBG         18.3610     1.8470    -4.3290 O.3          1 GP5225   0.0000
    25 PCE         19.2070     1.2010    -3.1120 P.3          1 GP5225   0.0000
    26 OAP         18.8230    -0.3450    -2.8170 O.co2        1 GP5225   0.0000
    27 OAG         20.5160     1.8990    -2.8150 O.co2        1 GP5225  -1.0000
    28 OBI         20.2270     0.3840    -4.1920 O.3          1 GP5225   0.0000
    29 PCG         19.8900    -0.5120    -5.5370 P.3          1 GP5225   0.0000
    30 OAR         18.5560    -1.3150    -5.2140 O.co2        1 GP5225   0.0000
    31 OAI         19.7310     0.3120    -6.7630 O.co2        1 GP5225  -1.0000
    32 OBJ         20.9520    -1.6630    -5.8480 O.3          1 GP5225   0.0000
    33 PCF         22.2150    -2.1710    -5.0130 P.3          1 GP5225   0.0000
    34 OAQ         21.6820    -3.1410    -3.8530 O.co2        1 GP5225   0.0000
    35 OAH         23.0670    -1.0780    -4.4430 O.co2        1 GP5225  -1.0000
    36 OBH         23.0600    -3.0190    -6.0130 O.3          1 GP5225   0.0000
    37 PCD         22.6590    -4.3430    -6.8000 P.3          1 GP5225   0.0000
    38 OAO         23.5200    -5.4240    -6.0860 O.co2        1 GP5225   0.0000
    39 OAF         21.2210    -4.7280    -6.8010 O.co2        1 GP5225  -1.0000
    40 OBD         23.2900    -4.0010    -8.2130 O.3          1 GP5225   0.0000
    41 CAV         22.6370    -3.0140    -9.0550 C.3          1 GP5225   0.0000
    42 CBZ         22.7290    -3.4670   -10.5180 C.3          1 GP5225   0.0000
    43 OBF         24.1200    -3.5710   -10.9040 O.3          1 GP5225   0.0000
    44 CBV         22.1620    -4.8940   -10.5620 C.3          1 GP5225   0.0000
    45 OAL         21.3910    -5.0210   -11.7450 O.3          1 GP5225   0.0000
    46 CBW         23.3900    -5.7990   -10.6180 C.3          1 GP5225   0.0000
    47 OAM         23.0900    -6.9790   -11.3820 O.3          1 GP5225   0.0000
    48 CXB         24.4030    -4.9050   -11.3340 C.3          1 GP5225   0.0000
    49 NBY         25.8130    -5.1570   -10.9660 N.pl3        1 GP5225   0.0000
    50 CAT         26.2980    -5.4330    -9.7410 C.2          1 GP5225   0.0000
    51 NAX         27.6160    -5.5860    -9.8210 N.2          1 GP5225   0.0000
    52 CBP         27.9750    -5.4030   -11.0930 C.2          1 GP5225   0.0000
    53 CBR         26.8230    -5.1130   -11.8190 C.2          1 GP5225   0.0000
    54 NAZ         26.8610    -4.8710   -13.1500 N.2          1 GP5225   0.0000
    55 CBL         28.0310    -4.8990   -13.8050 C.2          1 GP5225   0.0000
    56 NAB         28.0760    -4.6660   -15.1110 N.pl3        1 GP5225   0.0000
    57 NBB         29.2190    -5.1770   -13.1170 N.pl3        1 GP5225   0.0000
    58 CBN         29.1980    -5.4260   -11.7520 C.2          1 GP5225   0.0000
    59 OAD         30.2530    -5.6650   -11.1720 O.2          1 GP5225   0.0000
    60 H1          10.9027     7.6530     2.2888 H            1 GP5225   0.0000
    61 H2          14.0259     7.9790     3.8650 H            1 GP5225   0.0000
    62 H3          12.4156     8.5907     3.6837 H            1 GP5225   0.0000
    63 H4          13.5302     2.5656    -0.5796 H            1 GP5225   0.0000
    64 H1'         15.5169     2.5054     1.1386 H            1 GP5225   0.0000
    65 H2'         16.3848     5.1460     1.9636 H            1 GP5225   0.0000
    66 H7          17.2229     2.7685     3.1538 H            1 GP5225   0.0000
    67 H3'         18.4564     4.6405     1.1255 H            1 GP5225   0.0000
    68 H9          19.0848     3.0012     2.4357 H            1 GP5225   0.0000
    69 H4'         17.5521     2.5315    -0.5080 H            1 GP5225   0.0000
    70 H5'1        18.6232     4.9954    -1.0357 H            1 GP5225   0.0000
    71 H5'2        17.1286     5.0111    -1.6935 H            1 GP5225   0.0000
    72 HAV1        23.0910    -2.1294    -8.9487 H            1 GP5225   0.0000
    73 HAV2        21.6765    -2.9297    -8.7898 H            1 GP5225   0.0000
    74 HBZ         22.2246    -2.8527   -11.1249 H            1 GP5225   0.0000
    75 HBV         21.6100    -5.0867    -9.7507 H            1 GP5225   0.0000
    76 HAL         21.0099    -5.9441   -11.7970 H            1 GP5225   0.0000
    77 HBW         23.7050    -6.0356    -9.6989 H            1 GP5225   0.0000
    78 HAM         22.3348    -7.4724   -10.9505 H            1 GP5225   0.0000
    79 HXB         24.2875    -4.9790   -12.3245 H            1 GP5225   0.0000
    80 HAT         25.7543    -5.5105    -8.9053 H            1 GP5225   0.0000
    81 HAB1        28.9519    -4.6885   -15.5930 H            1 GP5225   0.0000
    82 HAB2        27.2340    -4.4680   -15.6129 H            1 GP5225   0.0000
    83 HBB         30.0874    -5.1961   -13.6124 H            1 GP5225   0.0000
@<TRIPOS>BOND
     1    1    2       2
     2    2    3       1
     3    2    8       1
     4    3    4       1
     5    4    5       1
     6    4    6       2
     7    6    7       1
     8    7    8       2
     9    7   11       1
    10    8    9       1
    11    9   10       2
    12   10   11       1
    13   11   12       1
    14   12   13       1
    15   12   14       1
    16   13   18       1
    17   14   15       1
    18   14   16       1
    19   16   17       1
    20   16   18       1
    21   18   19       1
    22   19   20       1
    23   20   21       1
    24   21   22      ar
    25   21   23      ar
    26   21   24       1
    27   24   25       1
    28   25   26      ar
    29   25   27      ar
    30   25   28       1
    31   28   29       1
    32   29   30      ar
    33   29   31      ar
    34   29   32       1
    35   32   33       1
    36   33   34      ar
    37   33   35      ar
    38   33   36       1
    39   36   37       1
    40   37   38      ar
    41   37   39      ar
    42   37   40       1
    43   40   41       1
    44   41   42       1
    45   42   43       1
    46   42   44       1
    47   43   48       1
    48   44   45       1
    49   44   46       1
    50   46   47       1
    51   46   48       1
    52   48   49       1
    53   49   50       1
    54   49   53       1
    55   50   51       2
    56   51   52       1
    57   52   53       2
    58   52   58       1
    59   53   54       1
    60   54   55       2
    61   55   56       1
    62   55   57       1
    63   57   58       1
    64   58   59       2
    65    3   60       1
    66    5   61       1
    67    5   62       1
    68   10   63       1
    69   12   64       1
    70   14   65       1
    71   15   66       1
    72   16   67       1
    73   17   68       1
    74   18   69       1
    75   19   70       1
    76   19   71       1
    77   56   82       1
    78   56   81       1
    79   47   78       1
    80   50   80       1
    81   48   79       1
    82   41   72       1
    83   41   73       1
    84   42   74       1
    85   44   75       1
    86   45   76       1
    87   46   77       1
    88   57   83       1
@<TRIPOS>SUBSTRUCTURE
     1 GP5225      1 GROUP             4 B     GP5     0 **** GP5 B 225
