@<TRIPOS>MOLECULE
2hu2_NAD_1_ligand
   70    74     1     0     0
SMALL
NO_CHARGES


@<TRIPOS>ATOM
     1 PA           4.0070    25.5150    26.6080 P.3          1 NAD600   0.0000
     2 O1A          3.4300    24.1500    26.5960 O.co2        1 NAD600   0.0000
     3 O2A          5.3550    25.5260    25.9890 O.co2        1 NAD600  -1.0000
     4 O5B          4.0370    26.0670    28.1220 O.3          1 NAD600   0.0000
     5 C5B          3.2300    25.4970    29.1330 C.3          1 NAD600   0.0000
     6 C4B          4.1070    25.0670    30.3030 C.3          1 NAD600   0.0000
     7 O4B          3.4350    25.3060    31.5250 O.3          1 NAD600   0.0000
     8 C3B          4.4420    23.5820    30.2430 C.3          1 NAD600   0.0000
     9 O3B          5.8510    23.4300    30.1890 O.3          1 NAD600   0.0000
    10 C2B          3.8820    22.9900    31.5270 C.3          1 NAD600   0.0000
    11 O2B          4.8210    22.1450    32.1550 O.3          1 NAD600   0.0000
    12 C1B          3.6000    24.2060    32.4020 C.3          1 NAD600   0.0000
    13 N9A          2.4080    24.0390    33.2670 N.pl3        1 NAD600   0.0000
    14 C8A          1.2520    23.3560    32.9760 C.2          1 NAD600   0.0000
    15 N7A          0.4140    23.4500    34.0330 N.2          1 NAD600   0.0000
    16 C5A          1.0110    24.1830    34.9950 C.ar         1 NAD600   0.0000
    17 C6A          0.5990    24.5790    36.2640 C.ar         1 NAD600   0.0000
    18 N6A         -0.4600    24.0020    36.8200 N.pl3        1 NAD600   0.0000
    19 N1A          1.4400    25.3460    37.0460 N.ar         1 NAD600   0.0000
    20 C2A          2.6830    25.7140    36.5660 C.ar         1 NAD600   0.0000
    21 N3A          3.0860    25.3140    35.3050 N.ar         1 NAD600   0.0000
    22 C4A          2.2660    24.5590    34.5300 C.ar         1 NAD600   0.0000
    23 O3           3.0350    26.5260    25.8130 O.3          1 NAD600   0.0000
    24 PN           3.2820    28.1180    25.7730 P.3          1 NAD600   0.0000
    25 O1N          4.6400    28.4500    26.2640 O.co2        1 NAD600   0.0000
    26 O2N          2.8530    28.6240    24.4480 O.co2        1 NAD600  -1.0000
    27 O5D          2.2230    28.5870    26.8860 O.3          1 NAD600   0.0000
    28 C5D          1.5550    29.8190    26.7720 C.3          1 NAD600   0.0000
    29 C4D          0.0730    29.6280    27.0590 C.3          1 NAD600   0.0000
    30 O4D         -0.5600    30.8760    26.9000 O.3          1 NAD600   0.0000
    31 C3D         -0.5800    28.6550    26.0870 C.3          1 NAD600   0.0000
    32 O3D         -0.9620    27.4750    26.7550 O.3          1 NAD600   0.0000
    33 C2D         -1.7890    29.3750    25.5250 C.3          1 NAD600   0.0000
    34 O2D         -2.9770    28.8410    26.0650 O.3          1 NAD600   0.0000
    35 C1D         -1.6300    30.8170    25.9790 C.3          1 NAD600   0.0000
    36 N1N         -1.3740    31.7430    24.8560 N.ar         1 NAD600   1.0000
    37 C2N         -2.2110    32.8170    24.7170 C.ar         1 NAD600   0.0000
    38 C3N         -2.0340    33.7400    23.6890 C.ar         1 NAD600   0.0000
    39 C7N         -2.6350    35.1080    23.8370 C.2          1 NAD600   0.0000
    40 O7N         -3.0860    35.7850    22.6840 O.2          1 NAD600   0.0000
    41 N7N         -2.7340    35.6600    25.0560 N.am         1 NAD600   0.0000
    42 C4N         -0.9860    33.5520    22.7930 C.ar         1 NAD600   0.0000
    43 C5N         -0.1310    32.4620    22.9350 C.ar         1 NAD600   0.0000
    44 C6N         -0.3340    31.5590    23.9780 C.ar         1 NAD600   0.0000
    45 H5B1         2.7498    24.7002    28.7662 H            1 NAD600   0.0000
    46 H5B2         2.5631    26.1726    29.4473 H            1 NAD600   0.0000
    47 H4B          4.9560    25.5952    30.2874 H            1 NAD600   0.0000
    48 H3B          4.0130    23.1580    29.4454 H            1 NAD600   0.0000
    49 H5           6.2616    23.8362    31.0053 H            1 NAD600   0.0000
    50 H2B          3.0354    22.4916    31.3403 H            1 NAD600   0.0000
    51 H7           5.3794    22.6801    32.7889 H            1 NAD600   0.0000
    52 H1B          4.3965    24.3752    32.9825 H            1 NAD600   0.0000
    53 H8A          1.0617    22.8696    32.1232 H            1 NAD600   0.0000
    54 H6A1        -0.7610    24.2821    37.7315 H            1 NAD600   0.0000
    55 H6A2        -0.9564    23.2874    36.3271 H            1 NAD600   0.0000
    56 H2A          3.2918    26.2704    37.1315 H            1 NAD600   0.0000
    57 H5D1         1.6707    30.1752    25.8448 H            1 NAD600   0.0000
    58 H5D2         1.9398    30.4676    27.4287 H            1 NAD600   0.0000
    59 H4D         -0.0506    29.3032    27.9967 H            1 NAD600   0.0000
    60 H3D          0.0571    28.4351    25.3483 H            1 NAD600   0.0000
    61 H17         -0.9222    26.7042    26.1191 H            1 NAD600   0.0000
    62 H2D         -1.7996    29.3192    24.5266 H            1 NAD600   0.0000
    63 H19         -2.7518    28.1029    26.7010 H            1 NAD600   0.0000
    64 H1D         -2.4687    31.1010    26.4436 H            1 NAD600   0.0000
    65 H2N         -2.9627    32.9412    25.3648 H            1 NAD600   0.0000
    66 H7N1        -3.1332    36.5707    25.1615 H            1 NAD600   0.0000
    67 H7N2        -2.4085    35.1606    25.8589 H            1 NAD600   0.0000
    68 H4N         -0.8465    34.2012    22.0453 H            1 NAD600   0.0000
    69 H5N          0.6238    32.3277    22.2930 H            1 NAD600   0.0000
    70 H6N          0.2786    30.7762    24.0869 H            1 NAD600   0.0000
@<TRIPOS>BOND
     1    1    2      ar
     2    1    3      ar
     3    1    4       1
     4    1   23       1
     5    4    5       1
     6    5    6       1
     7    6    7       1
     8    6    8       1
     9    7   12       1
    10    8    9       1
    11    8   10       1
    12   10   11       1
    13   10   12       1
    14   12   13       1
    15   13   14       1
    16   13   22       1
    17   14   15       2
    18   15   16       1
    19   16   17      ar
    20   16   22      ar
    21   17   18       1
    22   17   19      ar
    23   19   20      ar
    24   20   21      ar
    25   21   22      ar
    26   23   24       1
    27   24   25      ar
    28   24   26      ar
    29   24   27       1
    30   27   28       1
    31   28   29       1
    32   29   30       1
    33   29   31       1
    34   30   35       1
    35   31   32       1
    36   31   33       1
    37   33   34       1
    38   33   35       1
    39   35   36       1
    40   36   37      ar
    41   36   44      ar
    42   37   38      ar
    43   38   39       1
    44   38   42      ar
    45   39   40       2
    46   39   41      am
    47   42   43      ar
    48   43   44      ar
    49   44   70       1
    50    5   45       1
    51    5   46       1
    52    6   47       1
    53    8   48       1
    54    9   49       1
    55   10   50       1
    56   11   51       1
    57   12   52       1
    58   14   53       1
    59   18   54       1
    60   18   55       1
    61   20   56       1
    62   43   69       1
    63   28   57       1
    64   28   58       1
    65   29   59       1
    66   31   60       1
    67   32   61       1
    68   33   62       1
    69   34   63       1
    70   35   64       1
    71   37   65       1
    72   41   66       1
    73   41   67       1
    74   42   68       1
@<TRIPOS>SUBSTRUCTURE
     1 NAD600      1 GROUP             4 A     NAD     0 **** NAD A 600
