@<TRIPOS>MOLECULE
3sj7_NDP_1_ligand
   73    77     1     0     0
SMALL
NO_CHARGES


@<TRIPOS>ATOM
     1 PA          -6.4750    39.4530    24.6740 P.3          1 NDP245   0.0000
     2 O1A         -7.1600    40.3890    25.6030 O.co2        1 NDP245   0.0000
     3 O2A         -6.9340    38.0460    24.7130 O.co2        1 NDP245  -1.0000
     4 O5B         -6.6560    40.0750    23.2120 O.3          1 NDP245   0.0000
     5 C5B         -6.1330    39.4730    22.0470 C.3          1 NDP245   0.0000
     6 C4B         -6.2480    40.5140    20.9320 C.3          1 NDP245   0.0000
     7 O4B         -5.6410    40.0450    19.7340 O.3          1 NDP245   0.0000
     8 C3B         -7.7110    40.7770    20.6150 C.3          1 NDP245   0.0000
     9 O3B         -7.8800    42.1470    20.2910 O.3          1 NDP245   0.0000
    10 C2B         -7.9580    39.9750    19.3620 C.3          1 NDP245   0.0000
    11 O2B         -8.9340    40.6360    18.5830 O.3          1 NDP245   0.0000
    12 C1B         -6.5990    40.0440    18.6930 C.3          1 NDP245   0.0000
    13 N9A         -6.3200    38.9500    17.7670 N.pl3        1 NDP245   0.0000
    14 C8A         -6.2380    37.6040    18.0490 C.2          1 NDP245   0.0000
    15 N7A         -5.9290    36.9610    16.8910 N.2          1 NDP245   0.0000
    16 C5A         -5.8350    37.8920    15.8960 C.ar         1 NDP245   0.0000
    17 C6A         -5.5550    37.7920    14.5330 C.ar         1 NDP245   0.0000
    18 N6A         -5.3060    36.5770    14.0010 N.pl3        1 NDP245   0.0000
    19 N1A         -5.5240    38.9480    13.7590 N.ar         1 NDP245   0.0000
    20 C2A         -5.7560    40.1890    14.3290 C.ar         1 NDP245   0.0000
    21 N3A         -6.0200    40.2660    15.6700 N.ar         1 NDP245   0.0000
    22 C4A         -6.0700    39.1460    16.4340 C.ar         1 NDP245   0.0000
    23 O3          -4.9130    39.4750    25.0240 O.3          1 NDP245   0.0000
    24 PN          -4.0840    40.5130    25.9220 P.3          1 NDP245   0.0000
    25 O1N         -4.5130    41.9030    25.6120 O.co2        1 NDP245   0.0000
    26 O2N         -4.0230    40.0430    27.3430 O.co2        1 NDP245  -1.0000
    27 O5D         -2.6220    40.2760    25.2610 O.3          1 NDP245   0.0000
    28 C5D         -1.9630    41.3190    24.5690 C.3          1 NDP245   0.0000
    29 C4D         -0.5420    40.8970    24.2980 C.3          1 NDP245   0.0000
    30 O4D          0.1400    40.7910    25.5310 O.3          1 NDP245   0.0000
    31 C3D         -0.5300    39.5240    23.6550 C.3          1 NDP245   0.0000
    32 O3D          0.4450    39.4970    22.6450 O.3          1 NDP245   0.0000
    33 C2D         -0.1750    38.6240    24.8240 C.3          1 NDP245   0.0000
    34 O2D          0.2910    37.3400    24.4370 O.3          1 NDP245   0.0000
    35 C1D          0.7750    39.5250    25.6130 C.3          1 NDP245   0.0000
    36 N1N          0.9790    39.1680    27.0340 N.ar         1 NDP245   1.0000
    37 C2N         -0.0640    39.1130    27.9280 C.ar         1 NDP245   0.0000
    38 C3N          0.1670    38.7840    29.2670 C.ar         1 NDP245   0.0000
    39 C7N         -0.9550    38.8030    30.2870 C.2          1 NDP245   0.0000
    40 O7N         -0.6230    38.5000    31.6550 O.2          1 NDP245   0.0000
    41 N7N         -2.2050    39.0850    29.8680 N.am         1 NDP245   0.0000
    42 C4N          1.4640    38.4970    29.6900 C.ar         1 NDP245   0.0000
    43 C5N          2.5070    38.5520    28.7850 C.ar         1 NDP245   0.0000
    44 C6N          2.2520    38.9090    27.4580 C.ar         1 NDP245   0.0000
    45 P2B        -10.4520    40.0580    18.4800 P.3          1 NDP245   0.0000
    46 O1X        -10.4410    38.5530    18.4710 O.co2        1 NDP245   0.0000
    47 O2X        -11.0860    40.5280    17.1960 O.co2        1 NDP245  -1.0000
    48 O3X        -11.1600    40.5790    19.6810 O.co2        1 NDP245  -1.0000
    49 H5B1        -6.6608    38.6564    21.8132 H            1 NDP245   0.0000
    50 H5B2        -5.1754    39.2219    22.1879 H            1 NDP245   0.0000
    51 H4B         -5.8086    41.3648    21.2203 H            1 NDP245   0.0000
    52 H3B         -8.3112    40.4941    21.3631 H            1 NDP245   0.0000
    53 H5          -8.8417    42.3239    20.0818 H            1 NDP245   0.0000
    54 H2B         -8.2230    39.0333    19.5694 H            1 NDP245   0.0000
    55 H1B         -6.5313    40.9088    18.1956 H            1 NDP245   0.0000
    56 H8A         -6.3798    37.1775    18.9423 H            1 NDP245   0.0000
    57 H6A1        -5.1038    36.4902    13.0255 H            1 NDP245   0.0000
    58 H6A2        -5.3237    35.7635    14.5823 H            1 NDP245   0.0000
    59 H2A         -5.7310    41.0170    13.7688 H            1 NDP245   0.0000
    60 H5D1        -1.9669    42.1484    25.1276 H            1 NDP245   0.0000
    61 H5D2        -2.4318    41.4975    23.7039 H            1 NDP245   0.0000
    62 H4D         -0.0883    41.5627    23.7055 H            1 NDP245   0.0000
    63 H3D         -1.4312    39.2937    23.2877 H            1 NDP245   0.0000
    64 H16          0.0345    39.7788    21.7778 H            1 NDP245   0.0000
    65 H2D         -1.0011    38.4963    25.3729 H            1 NDP245   0.0000
    66 H18          0.9333    36.9978    25.1229 H            1 NDP245   0.0000
    67 H1D          1.6598    39.5648    25.1487 H            1 NDP245   0.0000
    68 H2N         -0.9943    39.3097    27.6184 H            1 NDP245   0.0000
    69 H7N1        -2.9600    39.1029    30.5235 H            1 NDP245   0.0000
    70 H7N2        -2.3772    39.2762    28.9017 H            1 NDP245   0.0000
    71 H4N          1.6388    38.2525    30.6438 H            1 NDP245   0.0000
    72 H5N          3.4388    38.3376    29.0779 H            1 NDP245   0.0000
    73 H6N          3.0110    38.9758    26.8104 H            1 NDP245   0.0000
@<TRIPOS>BOND
     1    1    2      ar
     2    1    3      ar
     3    1    4       1
     4    1   23       1
     5    4    5       1
     6    5    6       1
     7    6    7       1
     8    6    8       1
     9    7   12       1
    10    8    9       1
    11    8   10       1
    12   10   11       1
    13   10   12       1
    14   11   45       1
    15   12   13       1
    16   13   14       1
    17   13   22       1
    18   14   15       2
    19   15   16       1
    20   16   17      ar
    21   16   22      ar
    22   17   18       1
    23   17   19      ar
    24   19   20      ar
    25   20   21      ar
    26   21   22      ar
    27   23   24       1
    28   24   25      ar
    29   24   26      ar
    30   24   27       1
    31   27   28       1
    32   28   29       1
    33   29   30       1
    34   29   31       1
    35   30   35       1
    36   31   32       1
    37   31   33       1
    38   33   34       1
    39   33   35       1
    40   35   36       1
    41   36   37      ar
    42   36   44      ar
    43   37   38      ar
    44   38   39       1
    45   38   42      ar
    46   39   40       2
    47   39   41      am
    48   42   43      ar
    49   43   44      ar
    50   45   46      ar
    51   45   47      ar
    52   45   48      ar
    53   43   72       1
    54    5   49       1
    55    5   50       1
    56    6   51       1
    57    8   52       1
    58    9   53       1
    59   10   54       1
    60   12   55       1
    61   14   56       1
    62   18   57       1
    63   18   58       1
    64   20   59       1
    65   44   73       1
    66   28   60       1
    67   28   61       1
    68   29   62       1
    69   31   63       1
    70   32   64       1
    71   33   65       1
    72   34   66       1
    73   35   67       1
    74   37   68       1
    75   41   69       1
    76   41   70       1
    77   42   71       1
@<TRIPOS>SUBSTRUCTURE
     1 NDP245      1 GROUP             4 A     NDP     0 **** NDP A 245
