@<TRIPOS>MOLECULE
1onf_FAD_1_ligand
   89    93     1     0     0
SMALL
NO_CHARGES


@<TRIPOS>ATOM
     1 PA          75.9790    69.0400    78.4370 P.3          1 FAD500   0.0000
     2 O1A         75.1270    68.6890    77.2840 O.co2        1 FAD500   0.0000
     3 O2A         75.5530    68.2290    79.6590 O.co2        1 FAD500  -1.0000
     4 O5B         75.8910    70.6070    78.8240 O.3          1 FAD500   0.0000
     5 C5B         76.4520    71.6430    78.0550 C.3          1 FAD500   0.0000
     6 C4B         75.7730    72.9180    78.5150 C.3          1 FAD500   0.0000
     7 O4B         76.1640    74.0670    77.7610 O.3          1 FAD500   0.0000
     8 C3B         74.2860    72.7330    78.2950 C.3          1 FAD500   0.0000
     9 O3B         73.5960    73.1180    79.4620 O.3          1 FAD500   0.0000
    10 C2B         73.9770    73.6950    77.1670 C.3          1 FAD500   0.0000
    11 O2B         72.6930    74.1690    77.3660 O.3          1 FAD500   0.0000
    12 C1B         75.0020    74.8050    77.3450 C.3          1 FAD500   0.0000
    13 N9A         75.2400    75.5930    76.1050 N.pl3        1 FAD500   0.0000
    14 C8A         75.2360    75.0780    74.8380 C.2          1 FAD500   0.0000
    15 N7A         75.5140    76.0760    73.9720 N.2          1 FAD500   0.0000
    16 C5A         75.7020    77.2440    74.6570 C.2          1 FAD500   0.0000
    17 C6A         76.0340    78.5550    74.2980 C.3          1 FAD500   0.0000
    18 N6A         76.2140    78.8860    73.0360 N.4          1 FAD500   1.0000
    19 C2A         75.9930    79.2290    76.5730 C.3          1 FAD500   0.0000
    20 N3A         75.6920    77.9270    76.9160 N.pl3        1 FAD500   0.0000
    21 C4A         75.5390    76.9430    75.9970 C.2          1 FAD500   0.0000
    22 N1          76.1020    59.2120    80.1450 N.2          1 FAD500   0.0000
    23 C2          76.3840    58.3140    81.1350 C.2          1 FAD500   0.0000
    24 O2          77.4660    58.3000    81.6790 O.2          1 FAD500   0.0000
    25 N3          75.4700    57.3800    81.5390 N.pl3        1 FAD500   0.0000
    26 C4          74.2360    57.3610    80.9720 C.2          1 FAD500   0.0000
    27 O4          73.4330    56.5600    81.3670 O.2          1 FAD500   0.0000
    28 C4X         73.9150    58.2450    79.9590 C.2          1 FAD500   0.0000
    29 N5          72.6650    58.2060    79.3830 N.2          1 FAD500   0.0000
    30 C5X         72.3440    59.0970    78.3910 C.ar         1 FAD500   0.0000
    31 C6          71.0840    59.0160    77.8320 C.ar         1 FAD500   0.0000
    32 C7          70.7200    59.8920    76.8300 C.ar         1 FAD500   0.0000
    33 C7M         69.3480    59.7700    76.2560 C.3          1 FAD500   0.0000
    34 C8          71.6160    60.8520    76.3710 C.ar         1 FAD500   0.0000
    35 C8M         71.2270    61.7810    75.2640 C.3          1 FAD500   0.0000
    36 C9          72.9010    60.9190    76.9250 C.ar         1 FAD500   0.0000
    37 C9A         73.2790    60.0340    77.9420 C.ar         1 FAD500   0.0000
    38 N10         74.5390    60.0620    78.5190 N.pl3        1 FAD500   0.0000
    39 C10         74.8580    59.1800    79.5400 C.2          1 FAD500   0.0000
    40 C1'         75.6550    60.8080    77.8980 C.3          1 FAD500   0.0000
    41 C2'         75.5690    62.0890    78.6780 C.3          1 FAD500   0.0000
    42 O2'         74.3590    62.7830    78.4690 O.3          1 FAD500   0.0000
    43 C3'         76.7050    62.9510    78.2420 C.3          1 FAD500   0.0000
    44 O3'         77.8320    62.1100    78.3330 O.3          1 FAD500   0.0000
    45 C4'         76.7410    64.1570    79.1700 C.3          1 FAD500   0.0000
    46 O4'         75.4850    64.8170    79.1480 O.3          1 FAD500   0.0000
    47 C5'         77.7940    65.1460    78.7510 C.3          1 FAD500   0.0000
    48 O5'         77.3900    66.4790    79.0260 O.3          1 FAD500   0.0000
    49 P           78.4100    67.6860    78.8080 P.3          1 FAD500   0.0000
    50 O1P         79.5340    67.1620    78.0180 O.co2        1 FAD500   0.0000
    51 O2P         78.8650    68.3590    80.1030 O.co2        1 FAD500  -1.0000
    52 O3P         77.5130    68.7520    78.0210 O.3          1 FAD500   0.0000
    53 H5B1        76.2778    71.4877    77.0826 H            1 FAD500   0.0000
    54 H5B2        77.4380    71.6980    78.2124 H            1 FAD500   0.0000
    55 H4B         75.9568    73.0699    79.4862 H            1 FAD500   0.0000
    56 H3B         74.0705    71.7907    78.0390 H            1 FAD500   0.0000
    57 H5          73.7896    74.0784    79.6622 H            1 FAD500   0.0000
    58 H2B         74.0688    73.2530    76.2747 H            1 FAD500   0.0000
    59 H7          72.6435    74.6371    78.2483 H            1 FAD500   0.0000
    60 H1B         74.7109    75.4163    78.0809 H            1 FAD500   0.0000
    61 H8A         75.0576    74.1247    74.5944 H            1 FAD500   0.0000
    62 H6A1        76.8860    78.7734    74.7739 H            1 FAD500   0.0000
    63 H6A2        75.2998    79.1394    74.6437 H            1 FAD500   0.0000
    64 H12         76.4431    79.8575    72.9756 H            1 FAD500   0.0000
    65 H13         76.9608    78.3429    72.6522 H            1 FAD500   0.0000
    66 H2A1        76.0599    79.7850    77.4015 H            1 FAD500   0.0000
    67 H2A2        76.8654    79.2519    76.0848 H            1 FAD500   0.0000
    68 H2A3        75.2718    79.5938    75.9841 H            1 FAD500   0.0000
    69 H3A         75.5821    77.6999    77.8836 H            1 FAD500   0.0000
    70 H18         75.7088    56.7155    82.2472 H            1 FAD500   0.0000
    71 H19         70.4369    58.3242    78.1525 H            1 FAD500   0.0000
    72 H7M1        69.2213    60.4619    75.5452 H            1 FAD500   0.0000
    73 H7M2        69.2325    58.8594    75.8592 H            1 FAD500   0.0000
    74 H7M3        68.6708    59.9069    76.9790 H            1 FAD500   0.0000
    75 H8M1        71.9873    62.3993    75.0651 H            1 FAD500   0.0000
    76 H8M2        71.0060    61.2504    74.4457 H            1 FAD500   0.0000
    77 H8M3        70.4277    62.3140    75.5416 H            1 FAD500   0.0000
    78 H26         73.5513    61.6021    76.5925 H            1 FAD500   0.0000
    79 H1'1        75.5050    60.9566    76.9206 H            1 FAD500   0.0000
    80 H1'2        76.5321    60.3474    78.0344 H            1 FAD500   0.0000
    81 H2'         75.6665    61.8865    79.6524 H            1 FAD500   0.0000
    82 H30         74.5161    63.7652    78.5715 H            1 FAD500   0.0000
    83 H3'         76.5706    63.2470    77.2963 H            1 FAD500   0.0000
    84 H32         78.5082    62.3837    77.6490 H            1 FAD500   0.0000
    85 H4'         76.9331    63.8484    80.1016 H            1 FAD500   0.0000
    86 H34         75.6183    65.7931    79.3195 H            1 FAD500   0.0000
    87 H5'1        77.9572    65.0513    77.7690 H            1 FAD500   0.0000
    88 H5'2        78.6390    64.9526    79.2495 H            1 FAD500   0.0000
    89 H6A3        75.3747    78.7089    72.5220 H            1 FAD500   0.0000
@<TRIPOS>BOND
     1    1    2      ar
     2    1    3      ar
     3    1    4       1
     4    1   52       1
     5    4    5       1
     6    5    6       1
     7    6    7       1
     8    6    8       1
     9    7   12       1
    10    8    9       1
    11    8   10       1
    12   10   11       1
    13   10   12       1
    14   12   13       1
    15   13   14       1
    16   13   21       1
    17   14   15       2
    18   15   16       1
    19   16   17       1
    20   16   21       2
    21   17   18       1
    22   19   20       1
    23   20   21       1
    24   22   23       1
    25   22   39       2
    26   23   24       2
    27   23   25       1
    28   25   26       1
    29   26   27       2
    30   26   28       1
    31   28   29       2
    32   28   39       1
    33   29   30       1
    34   30   31      ar
    35   30   37      ar
    36   31   32      ar
    37   32   33       1
    38   32   34      ar
    39   34   35       1
    40   34   36      ar
    41   36   37      ar
    42   37   38       1
    43   38   39       1
    44   38   40       1
    45   40   41       1
    46   41   42       1
    47   41   43       1
    48   43   44       1
    49   43   45       1
    50   45   46       1
    51   45   47       1
    52   47   48       1
    53   48   49       1
    54   49   50      ar
    55   49   51      ar
    56   49   52       1
    57   18   89       1
    58    5   53       1
    59    5   54       1
    60    6   55       1
    61    8   56       1
    62    9   57       1
    63   10   58       1
    64   11   59       1
    65   12   60       1
    66   14   61       1
    67   17   62       1
    68   17   63       1
    69   18   64       1
    70   18   65       1
    71   19   66       1
    72   19   67       1
    73   19   68       1
    74   20   69       1
    75   25   70       1
    76   31   71       1
    77   33   72       1
    78   33   73       1
    79   33   74       1
    80   35   75       1
    81   35   76       1
    82   35   77       1
    83   36   78       1
    84   40   79       1
    85   40   80       1
    86   41   81       1
    87   42   82       1
    88   43   83       1
    89   44   84       1
    90   45   85       1
    91   46   86       1
    92   47   87       1
    93   47   88       1
@<TRIPOS>SUBSTRUCTURE
     1 FAD500      1 GROUP             4 A     FAD     0 **** FAD A 500
