@<TRIPOS>MOLECULE
2q7g_CCL_1_ligand
   40    40     1     0     0
SMALL
NO_CHARGES


@<TRIPOS>ATOM
     1 CAK          8.6020    50.5340    31.3540 C.3          1 CCL901   0.0000
     2 CAG          8.6970    51.8580    32.1270 C.3          1 CCL901   0.0000
     3 CAH          7.2870    52.1750    32.6150 C.3          1 CCL901   0.0000
     4 CAL          6.3680    51.5390    31.5810 C.3          1 CCL901   0.0000
     5 CAR          7.1120    50.2690    31.1180 C.3          1 CCL901   0.0000
     6 OAN          6.7690    49.1150    31.9240 O.3          1 CCL901   0.0000
     7 CAP          6.7760    47.9570    31.1740 C.2          1 CCL901   0.0000
     8 OAC          7.2400    47.9620    30.0270 O.2          1 CCL901   0.0000
     9 NAM          6.2630    46.8760    31.7440 N.am         1 CCL901   0.0000
    10 CAI          6.2000    45.5610    31.0960 C.3          1 CCL901   0.0000
    11 CAE          7.5090    44.8360    31.4180 C.3          1 CCL901   0.0000
    12 CAF          7.4800    44.2130    32.8120 C.3          1 CCL901   0.0000
    13 CB           8.8770    43.7280    33.2550 C.3          1 CCL901   0.0000
    14 CA           9.1070    43.8840    34.7810 C.3          1 CCL901   0.0000
    15 C            7.9850    43.2390    35.6260 C.2          1 CCL901   0.0000
    16 OXT          7.2990    42.3240    35.1090 O.co2        1 CCL901   0.0000
    17 O            7.8420    43.6810    36.7900 O.co2        1 CCL901  -1.0000
    18 N            9.2140    45.3110    35.1420 N.4          1 CCL901   1.0000
    19 HAK1         9.0034    49.7918    31.8907 H            1 CCL901   0.0000
    20 HAK2         9.0814    50.6101    30.4797 H            1 CCL901   0.0000
    21 HAG1         9.0268    52.5862    31.5262 H            1 CCL901   0.0000
    22 HAG2         9.3182    51.7605    32.9046 H            1 CCL901   0.0000
    23 HAH1         7.1417    53.1636    32.6553 H            1 CCL901   0.0000
    24 HAH2         7.1291    51.7777    33.5190 H            1 CCL901   0.0000
    25 HAL1         6.2202    52.1606    30.8117 H            1 CCL901   0.0000
    26 HAL2         5.4876    51.3013    31.9914 H            1 CCL901   0.0000
    27 HAR          6.9345    50.0890    30.1505 H            1 CCL901   0.0000
    28 HAM          5.8971    46.9616    32.6707 H            1 CCL901   0.0000
    29 HAI1         6.1032    45.6706    30.1067 H            1 CCL901   0.0000
    30 HAI2         5.4235    45.0406    31.4513 H            1 CCL901   0.0000
    31 HAE1         8.2627    45.4915    31.3714 H            1 CCL901   0.0000
    32 HAE2         7.6539    44.1129    30.7426 H            1 CCL901   0.0000
    33 HAF1         6.8543    43.4330    32.8045 H            1 CCL901   0.0000
    34 HAF2         7.1530    44.8964    33.4648 H            1 CCL901   0.0000
    35 HB1          9.5699    44.2621    32.7705 H            1 CCL901   0.0000
    36 HB2          8.9719    42.7621    33.0140 H            1 CCL901   0.0000
    37 HA           9.9705    43.4369    35.0144 H            1 CCL901   0.0000
    38 H20          9.3619    45.3954    36.1274 H            1 CCL901   0.0000
    39 H21          9.9836    45.7217    34.6531 H            1 CCL901   0.0000
    40 H22          8.3690    45.7828    34.8902 H            1 CCL901   0.0000
@<TRIPOS>BOND
     1    1    2       1
     2    1    5       1
     3    2    3       1
     4    3    4       1
     5    4    5       1
     6    5    6       1
     7    6    7       1
     8    7    8       2
     9    7    9      am
    10    9   10       1
    11   10   11       1
    12   11   12       1
    13   12   13       1
    14   13   14       1
    15   14   15       1
    16   14   18       1
    17   15   16      ar
    18   15   17      ar
    19    1   19       1
    20    1   20       1
    21    2   21       1
    22    2   22       1
    23    3   23       1
    24    3   24       1
    25    4   25       1
    26    4   26       1
    27    5   27       1
    28    9   28       1
    29   10   29       1
    30   10   30       1
    31   11   31       1
    32   11   32       1
    33   12   33       1
    34   12   34       1
    35   13   35       1
    36   13   36       1
    37   14   37       1
    38   18   39       1
    39   18   38       1
    40   18   40       1
@<TRIPOS>SUBSTRUCTURE
     1 CCL901      1 GROUP             4 A     CCL     0 **** CCL A 901
