@<TRIPOS>MOLECULE
3ean_NAP_6_ligand
   46    48     1     0     0
SMALL
NO_CHARGES


@<TRIPOS>ATOM
     1 PA          -9.7860    11.7540    72.0860 P.3          1 NAP601   0.0000
     2 O1A        -10.9500    11.6900    71.1430 O.co2        1 NAP601   0.0000
     3 O2A         -9.1550    10.5220    72.6580 O.co2        1 NAP601  -1.0000
     4 O5B        -10.3910    12.6520    73.2890 O.3          1 NAP601   0.0000
     5 C5B        -10.4360    14.0570    73.1950 C.3          1 NAP601   0.0000
     6 C4B         -9.6510    14.6850    74.3580 C.3          1 NAP601   0.0000
     7 O4B         -9.6800    16.1030    74.2220 O.3          1 NAP601   0.0000
     8 C3B        -10.3210    14.4480    75.6950 C.3          1 NAP601   0.0000
     9 O3B         -9.4080    14.8450    76.7430 O.3          1 NAP601   0.0000
    10 C2B        -11.4710    15.4220    75.5740 C.3          1 NAP601   0.0000
    11 O2B        -12.0030    15.7300    76.8450 O.3          1 NAP601   0.0000
    12 C1B        -10.7070    16.6330    75.0800 C.3          1 NAP601   0.0000
    13 N9A        -11.6240    17.4930    74.2930 N.pl3        1 NAP601   0.0000
    14 C8A        -12.4820    17.1000    73.3380 C.2          1 NAP601   0.0000
    15 N7A        -13.1340    18.1640    72.8710 N.2          1 NAP601   0.0000
    16 C5A        -12.6890    19.2330    73.5220 C.ar         1 NAP601   0.0000
    17 C6A        -12.9920    20.5850    73.4660 C.ar         1 NAP601   0.0000
    18 N6A        -13.8980    21.0110    72.6070 N.pl3        1 NAP601   0.0000
    19 N1A        -12.3500    21.4430    74.2800 N.ar         1 NAP601   0.0000
    20 C2A        -11.4280    21.0070    75.1390 C.ar         1 NAP601   0.0000
    21 N3A        -11.1140    19.7170    75.2210 N.ar         1 NAP601   0.0000
    22 C4A        -11.7270    18.8130    74.4270 C.ar         1 NAP601   0.0000
    23 O3          -8.4830    12.6150    71.4770 O.3          1 NAP601   0.0000
    24 PN          -6.8910    12.1140    71.0390 P.3          1 NAP601   0.0000
    25 O1N         -6.1120    11.8620    72.2990 O.co2        1 NAP601   0.0000
    26 O2N         -6.4280    13.1790    70.0840 O.co2        1 NAP601  -1.0000
    27 O5D         -7.1390    10.6760    70.2320 O.3          1 NAP601   0.0000
    28 C5D         -6.3990    10.2120    69.0770 C.3          1 NAP601   0.0000
    29 P2B        -13.3800    15.1150    77.3330 P.3          1 NAP601   0.0000
    30 O1X        -13.0860    13.8470    78.2870 O.co2        1 NAP601   0.0000
    31 O2X        -13.9100    16.2880    78.2850 O.co2        1 NAP601  -1.0000
    32 O3X        -14.2900    14.7900    76.2200 O.co2        1 NAP601  -1.0000
    33 H5B1       -11.3877    14.3616    73.2347 H            1 NAP601   0.0000
    34 H5B2       -10.0299    14.3444    72.3275 H            1 NAP601   0.0000
    35 H4B         -8.7088    14.3501    74.3703 H            1 NAP601   0.0000
    36 H3B        -10.6330    13.5038    75.8010 H            1 NAP601   0.0000
    37 H5          -9.8238    15.5719    77.2896 H            1 NAP601   0.0000
    38 H2B        -12.1695    15.1160    74.9271 H            1 NAP601   0.0000
    39 H1B        -10.3082    17.1404    75.8439 H            1 NAP601   0.0000
    40 H8A        -12.6112    16.1585    73.0267 H            1 NAP601   0.0000
    41 H6A1       -14.1232    21.9841    72.5593 H            1 NAP601   0.0000
    42 H6A2       -14.3596    20.3608    72.0035 H            1 NAP601   0.0000
    43 H2A        -10.9632    21.6631    75.7336 H            1 NAP601   0.0000
    44 H5D1        -6.7505     9.3202    68.7922 H            1 NAP601   0.0000
    45 H5D2        -6.5047    10.8665    68.3284 H            1 NAP601   0.0000
    46 H5D3        -5.4308    10.1289    69.3128 H            1 NAP601   0.0000
@<TRIPOS>BOND
     1    1    2      ar
     2    1    3      ar
     3    1    4       1
     4    1   23       1
     5    4    5       1
     6    5    6       1
     7    6    7       1
     8    6    8       1
     9    7   12       1
    10    8    9       1
    11    8   10       1
    12   10   11       1
    13   10   12       1
    14   11   29       1
    15   12   13       1
    16   13   14       1
    17   13   22       1
    18   14   15       2
    19   15   16       1
    20   16   17      ar
    21   16   22      ar
    22   17   18       1
    23   17   19      ar
    24   19   20      ar
    25   20   21      ar
    26   21   22      ar
    27   23   24       1
    28   24   25      ar
    29   24   26      ar
    30   24   27       1
    31   27   28       1
    32   29   30      ar
    33   29   31      ar
    34   29   32      ar
    35   28   45       1
    36    5   33       1
    37    5   34       1
    38    6   35       1
    39    8   36       1
    40    9   37       1
    41   10   38       1
    42   12   39       1
    43   14   40       1
    44   18   41       1
    45   18   42       1
    46   20   43       1
    47   28   46       1
    48   28   44       1
@<TRIPOS>SUBSTRUCTURE
     1 NAP601      1 GROUP             4 C     NAP     0 **** NAP C 601
