@<TRIPOS>MOLECULE
1nsf_ATP_1_ligand
   43    45     1     0     0
SMALL
NO_CHARGES


@<TRIPOS>ATOM
     1 PG          12.6440    27.6500    11.5680 P.3          1 ATP858   0.0000
     2 O1G         11.4780    27.4460    12.4210 O.co2        1 ATP858   0.0000
     3 O2G         13.8520    26.9450    11.9980 O.co2        1 ATP858  -1.0000
     4 O3G         12.2840    27.3960    10.1310 O.co2        1 ATP858  -1.0000
     5 PB          12.2350    30.5690    11.6050 P.3          1 ATP858   0.0000
     6 O1B         11.2180    30.5990    12.6870 O.co2        1 ATP858   0.0000
     7 O2B         11.7690    30.7580    10.2160 O.co2        1 ATP858  -1.0000
     8 O3B         13.0860    29.1900    11.7260 O.3          1 ATP858   0.0000
     9 PA          13.7060    32.2380    13.4600 P.3          1 ATP858   0.0000
    10 O1A         12.7090    33.2660    13.7620 O.co2        1 ATP858   0.0000
    11 O2A         13.9870    31.1880    14.4630 O.co2        1 ATP858  -1.0000
    12 O3A         13.2930    31.6000    12.0610 O.3          1 ATP858   0.0000
    13 O5'         15.0500    32.9100    13.0510 O.3          1 ATP858   0.0000
    14 C5'         15.1570    34.2750    12.6350 C.3          1 ATP858   0.0000
    15 C4'         16.4270    34.8580    13.1920 C.3          1 ATP858   0.0000
    16 O4'         16.7580    35.9930    12.3550 O.3          1 ATP858   0.0000
    17 C3'         16.3250    35.3880    14.6060 C.3          1 ATP858   0.0000
    18 O3'         17.6620    35.3610    15.1370 O.3          1 ATP858   0.0000
    19 C2'         15.8520    36.7960    14.3420 C.3          1 ATP858   0.0000
    20 O2'         16.1630    37.6910    15.3960 O.3          1 ATP858   0.0000
    21 C1'         16.6920    37.2130    13.1110 C.3          1 ATP858   0.0000
    22 N9          16.0650    38.2680    12.2720 N.pl3        1 ATP858   0.0000
    23 C8          16.6190    39.4530    11.8380 C.2          1 ATP858   0.0000
    24 N7          15.8370    40.1890    11.0980 N.2          1 ATP858   0.0000
    25 C5          14.6770    39.4370    11.0360 C.ar         1 ATP858   0.0000
    26 C6          13.4220    39.6480    10.3950 C.ar         1 ATP858   0.0000
    27 N6          13.1930    40.7400     9.6840 N.pl3        1 ATP858   0.0000
    28 N1          12.4480    38.7020    10.5250 N.ar         1 ATP858   0.0000
    29 C2          12.6870    37.6050    11.2440 C.ar         1 ATP858   0.0000
    30 N3          13.8190    37.2770    11.8980 N.ar         1 ATP858   0.0000
    31 C4          14.7940    38.2590    11.7490 C.ar         1 ATP858   0.0000
    32 H5'1        14.3724    34.7923    12.9768 H            1 ATP858   0.0000
    33 H5'2        15.1768    34.3206    11.6362 H            1 ATP858   0.0000
    34 H4'         17.1588    34.1785    13.1405 H            1 ATP858   0.0000
    35 H3'         15.6805    34.8661    15.1649 H            1 ATP858   0.0000
    36 H5          18.3185    35.4908    14.3939 H            1 ATP858   0.0000
    37 H2'         14.8743    36.8133    14.1325 H            1 ATP858   0.0000
    38 H7          15.8273    38.6048    15.1673 H            1 ATP858   0.0000
    39 H1'         17.6083    37.4949    13.3955 H            1 ATP858   0.0000
    40 H9          17.5513    39.7280    12.0730 H            1 ATP858   0.0000
    41 H10         12.3061    40.8714     9.2410 H            1 ATP858   0.0000
    42 H11         13.9068    41.4340     9.5896 H            1 ATP858   0.0000
    43 H12         11.9367    36.9468    11.3054 H            1 ATP858   0.0000
@<TRIPOS>BOND
     1    1    2      ar
     2    1    3      ar
     3    1    4      ar
     4    1    8       1
     5    5    6      ar
     6    5    7      ar
     7    5    8       1
     8    5   12       1
     9    9   10      ar
    10    9   11      ar
    11    9   12       1
    12    9   13       1
    13   13   14       1
    14   14   15       1
    15   15   16       1
    16   15   17       1
    17   16   21       1
    18   17   18       1
    19   17   19       1
    20   19   20       1
    21   19   21       1
    22   21   22       1
    23   22   23       1
    24   22   31       1
    25   23   24       2
    26   24   25       1
    27   25   26      ar
    28   25   31      ar
    29   26   27       1
    30   26   28      ar
    31   28   29      ar
    32   29   30      ar
    33   30   31      ar
    34   29   43       1
    35   27   42       1
    36   27   41       1
    37   23   40       1
    38   14   32       1
    39   14   33       1
    40   15   34       1
    41   17   35       1
    42   18   36       1
    43   19   37       1
    44   20   38       1
    45   21   39       1
@<TRIPOS>SUBSTRUCTURE
     1 ATP858      1 GROUP             4 A     ATP     0 **** ATP A 858
