@<TRIPOS>MOLECULE
3r7n_ASP_VAL_ALA_ACE_ASA_1_ligand
   38    37     3     0     0
SMALL
NO_CHARGES


@<TRIPOS>ATOM
     1 N            4.0610   -26.8870    19.7440 N.am         1 ASP403   0.0000
     2 CA           3.1000   -25.9280    20.2780 C.3          1 ASP403   0.0000
     3 C            2.0100   -26.5850    21.0970 C.2          1 ASP403   0.0000
     4 O            1.4290   -27.5550    20.6440 O.2          1 ASP403   0.0000
     5 CB           2.5430   -25.0420    19.1640 C.3          1 ASP403   0.0000
     6 CG           3.6730   -24.2870    18.4160 C.2          1 ASP403   0.0000
     7 OD1          4.5470   -23.6640    19.0740 O.co2        1 ASP403   0.0000
     8 OD2          3.7390   -24.3520    17.1760 O.co2        1 ASP403  -1.0000
     9 HA           3.6053   -25.3281    20.8984 H            1 ASP403   0.0000
    10 HB1          1.9157   -24.3737    19.5639 H            1 ASP403   0.0000
    11 HB2          2.0478   -25.6148    18.5108 H            1 ASP403   0.0000
    12 H7           3.9001   -27.2868    18.8416 H            1 ASP403   0.0000
    13 N            1.7750   -26.0580    22.3000 N.am         2 VAL404   0.0000
    14 CA           0.7800   -26.5430    23.2730 C.3          2 VAL404   0.0000
    15 C            0.0570   -25.2890    23.7740 C.2          2 VAL404   0.0000
    16 O            0.4760   -24.1710    23.4480 O.2          2 VAL404   0.0000
    17 CB           1.4770   -27.2540    24.4930 C.3          2 VAL404   0.0000
    18 CG1          2.3890   -28.4160    24.0250 C.3          2 VAL404   0.0000
    19 CG2          2.3260   -26.2940    25.2260 C.3          2 VAL404   0.0000
    20 H8           2.3222   -25.2640    22.5648 H            2 VAL404   0.0000
    21 H9           0.1337   -27.1645    22.8302 H            2 VAL404   0.0000
    22 HB           0.7764   -27.6126    25.1099 H            2 VAL404   0.0000
    23 HG11         2.8158   -28.8459    24.8206 H            2 VAL404   0.0000
    24 HG12         1.8407   -29.0932    23.5342 H            2 VAL404   0.0000
    25 HG13         3.0990   -28.0588    23.4181 H            2 VAL404   0.0000
    26 HG21         2.7627   -26.7567    25.9975 H            2 VAL404   0.0000
    27 HG22         3.0286   -25.9340    24.6121 H            2 VAL404   0.0000
    28 HG23         1.7618   -25.5411    25.5648 H            2 VAL404   0.0000
    29 N           -0.9510   -25.4690    24.6390 N.am         3 ALA405   0.0000
    30 CA          -1.8610   -24.3910    25.0530 C.3          3 ALA405   0.0000
    31 C           -1.6020   -23.9950    26.4520 C.2          3 ALA405   0.0000
    32 O           -1.2760   -24.8350    27.2840 O.2          3 ALA405   0.0000
    33 CB          -3.3120   -24.8340    24.9000 C.3          3 ALA405   0.0000
    34 H17         -1.0911   -26.3821    25.0219 H            3 ALA405   0.0000
    35 H18         -1.7057   -23.5985    24.4633 H            3 ALA405   0.0000
    36 H19         -3.9189   -24.0920    25.1848 H            3 ALA405   0.0000
    37 H20         -3.4915   -25.0628    23.9432 H            3 ALA405   0.0000
    38 HB3         -3.4772   -25.6377    25.4716 H            3 ALA405   0.0000
@<TRIPOS>BOND
     1    5   11       1
     2    1    2       1
     3    2    5       1
     4    2    3       1
     5    5    6       1
     6    6    7      ar
     7    6    8      ar
     8    3    4       2
     9    5   10       1
    10    3   13      am
    11    2    9       1
    12    1   12       1
    13   13   14       1
    14   14   17       1
    15   14   15       1
    16   17   18       1
    17   17   19       1
    18   15   16       2
    19   19   28       1
    20   13   20       1
    21   14   21       1
    22   15   29      am
    23   17   22       1
    24   18   23       1
    25   18   24       1
    26   18   25       1
    27   19   26       1
    28   19   27       1
    29   29   30       1
    30   30   33       1
    31   30   31       1
    32   31   32       2
    33   33   38       1
    34   29   34       1
    35   30   35       1
    36   33   36       1
    37   33   37       1
@<TRIPOS>SUBSTRUCTURE
     1 ASP403      1 RESIDUE           4 F     ASP     0 **** ASP F 403
     2 VAL404     13 RESIDUE           4 F     VAL     0 **** VAL F 404
     3 ALA405     29 RESIDUE           4 F     ALA     0 **** ALA F 405
