@<TRIPOS>MOLECULE
4o30_SAH_1_ligand
   46    48     1     0     0
SMALL
NO_CHARGES


@<TRIPOS>ATOM
     1 N          -34.0860    -7.3180     2.0050 N.4          1 SAH401   1.0000
     2 CA         -34.4810    -8.6000     2.5920 C.3          1 SAH401   0.0000
     3 CB         -33.3480    -9.6560     2.7500 C.3          1 SAH401   0.0000
     4 CG         -32.7670   -10.1800     1.4430 C.3          1 SAH401   0.0000
     5 SD         -33.9420   -11.3410     0.6940 S.3          1 SAH401   0.0000
     6 C          -35.2800    -8.4710     3.9080 C.2          1 SAH401   0.0000
     7 O          -35.5120    -9.4870     4.6010 O.co2        1 SAH401   0.0000
     8 OXT        -35.6860    -7.2660     4.2070 O.co2        1 SAH401  -1.0000
     9 C5'        -34.1940   -10.6500    -0.9710 C.3          1 SAH401   0.0000
    10 C4'        -35.0370    -9.3950    -1.0860 C.3          1 SAH401   0.0000
    11 O4'        -34.2620    -8.2560    -0.6550 O.3          1 SAH401   0.0000
    12 C3'        -35.4690    -9.0420    -2.5080 C.3          1 SAH401   0.0000
    13 O3'        -36.6530    -9.6910    -2.9540 O.3          1 SAH401   0.0000
    14 C2'        -35.6450    -7.5240    -2.4260 C.3          1 SAH401   0.0000
    15 O2'        -36.8980    -7.1010    -1.8940 O.3          1 SAH401   0.0000
    16 C1'        -34.5060    -7.1370    -1.4800 C.3          1 SAH401   0.0000
    17 N9         -33.2640    -6.7640    -2.1550 N.pl3        1 SAH401   0.0000
    18 C8         -32.0980    -7.4810    -2.2300 C.2          1 SAH401   0.0000
    19 N7         -31.1690    -6.9150    -2.9600 N.2          1 SAH401   0.0000
    20 C5         -31.7560    -5.7290    -3.3790 C.ar         1 SAH401   0.0000
    21 C6         -31.2650    -4.6350    -4.1240 C.ar         1 SAH401   0.0000
    22 N6         -30.0300    -4.5780    -4.6440 N.pl3        1 SAH401   0.0000
    23 N1         -32.0970    -3.5900    -4.3250 N.ar         1 SAH401   0.0000
    24 C2         -33.3380    -3.6450    -3.8320 C.ar         1 SAH401   0.0000
    25 N3         -33.9060    -4.6140    -3.1090 N.ar         1 SAH401   0.0000
    26 C4         -33.0510    -5.6300    -2.9050 C.ar         1 SAH401   0.0000
    27 H1         -34.8834    -6.7171     1.9492 H            1 SAH401   0.0000
    28 H2         -33.3861    -6.8908     2.5774 H            1 SAH401   0.0000
    29 HA         -35.1212    -9.0006     1.9365 H            1 SAH401   0.0000
    30 HB1        -33.7178   -10.4336     3.2585 H            1 SAH401   0.0000
    31 HB2        -32.6056    -9.2380     3.2736 H            1 SAH401   0.0000
    32 HG1        -31.9028   -10.6490     1.6250 H            1 SAH401   0.0000
    33 HG2        -32.6065    -9.4161     0.8179 H            1 SAH401   0.0000
    34 H5'1       -34.6319   -11.3572    -1.5260 H            1 SAH401   0.0000
    35 H5'2       -33.2919   -10.4409    -1.3485 H            1 SAH401   0.0000
    36 H4'        -35.8465    -9.4845    -0.5057 H            1 SAH401   0.0000
    37 H3'        -34.7223    -9.2519    -3.1392 H            1 SAH401   0.0000
    38 H12        -36.5183   -10.6817    -2.9329 H            1 SAH401   0.0000
    39 H2'        -35.4981    -7.1128    -3.3256 H            1 SAH401   0.0000
    40 H14        -36.9317    -6.1018    -1.8748 H            1 SAH401   0.0000
    41 H1'        -34.8056    -6.3730    -0.9085 H            1 SAH401   0.0000
    42 H16        -31.9681    -8.3585    -1.7683 H            1 SAH401   0.0000
    43 H17        -29.7426    -3.7729    -5.1628 H            1 SAH401   0.0000
    44 H18        -29.3966    -5.3406    -4.5129 H            1 SAH401   0.0000
    45 H19        -33.9187    -2.8556    -4.0309 H            1 SAH401   0.0000
    46 H20        -33.7187    -7.4705     1.0875 H            1 SAH401   0.0000
@<TRIPOS>BOND
     1    1    2       1
     2    2    3       1
     3    2    6       1
     4    3    4       1
     5    4    5       1
     6    5    9       1
     7    6    7      ar
     8    6    8      ar
     9    9   10       1
    10   10   11       1
    11   10   12       1
    12   11   16       1
    13   12   13       1
    14   12   14       1
    15   14   15       1
    16   14   16       1
    17   16   17       1
    18   17   18       1
    19   17   26       1
    20   18   19       2
    21   19   20       1
    22   20   21      ar
    23   20   26      ar
    24   21   22       1
    25   21   23      ar
    26   23   24      ar
    27   24   25      ar
    28   25   26      ar
    29    1   27       1
    30    1   28       1
    31    2   29       1
    32    3   30       1
    33    3   31       1
    34    4   32       1
    35    4   33       1
    36    1   46       1
    37    9   34       1
    38    9   35       1
    39   10   36       1
    40   12   37       1
    41   13   38       1
    42   14   39       1
    43   15   40       1
    44   16   41       1
    45   18   42       1
    46   22   43       1
    47   22   44       1
    48   24   45       1
@<TRIPOS>SUBSTRUCTURE
     1 SAH401      1 GROUP             4 A     SAH     0 **** SAH A 401
