@<TRIPOS>MOLECULE
4aw3_MYV_2_ligand
  112   114     1     0     0
SMALL
NO_CHARGES


@<TRIPOS>ATOM
     1 O11          8.5150    20.8970   -34.7350 O.2          1 MYV500   0.0000
     2 C34          8.4450    21.8750   -33.9750 C.2          1 MYV500   0.0000
     3 C33          7.1550    22.4860   -33.5680 C.2          1 MYV500   0.0000
     4 C32          6.0360    22.1350   -34.1910 C.2          1 MYV500   0.0000
     5 C30          4.7430    22.7630   -33.7280 C.3          1 MYV500   0.0000
     6 C31          4.2710    21.8190   -32.6330 C.3          1 MYV500   0.0000
     7 C21          3.7230    22.8880   -34.8560 C.3          1 MYV500   0.0000
     8 O8           2.7450    23.8530   -34.4840 O.3          1 MYV500   0.0000
     9 C22          1.4170    23.3630   -34.3780 C.3          1 MYV500   0.0000
    10 O10          0.8650    23.1740   -35.6820 O.3          1 MYV500   0.0000
    11 C28         -0.4500    22.6060   -35.5510 C.3          1 MYV500   0.0000
    12 C29         -0.9940    22.2060   -36.9220 C.3          1 MYV500   0.0000
    13 C27         -1.3840    23.5830   -34.8240 C.3          1 MYV500   0.0000
    14 C24         -0.8300    23.8940   -33.4350 C.3          1 MYV500   0.0000
    15 N           -1.6540    24.9540   -32.8150 N.4          1 MYV500   1.0000
    16 C26         -2.0460    26.0030   -33.7600 C.3          1 MYV500   0.0000
    17 C25         -2.8550    24.3950   -32.2040 C.3          1 MYV500   0.0000
    18 C23          0.5900    24.4090   -33.6320 C.3          1 MYV500   0.0000
    19 O9           1.2260    24.7700   -32.3880 O.3          1 MYV500   0.0000
    20 C19          4.3630    23.3580   -36.1640 C.3          1 MYV500   0.0000
    21 C20          3.3470    23.2160   -37.2840 C.3          1 MYV500   0.0000
    22 C18          4.8850    24.7950   -36.0560 C.3          1 MYV500   0.0000
    23 C16          5.2930    25.4130   -37.3920 C.3          1 MYV500   0.0000
    24 C17          5.4440    26.9310   -37.3080 C.3          1 MYV500   0.0000
    25 C15          6.5970    24.7920   -37.7870 C.2          1 MYV500   0.0000
    26 O7           6.7340    24.3080   -38.8980 O.2          1 MYV500   0.0000
    27 C14          7.6790    24.6960   -36.7870 C.2          1 MYV500   0.0000
    28 C13          8.8180    24.0460   -37.0570 C.2          1 MYV500   0.0000
    29 C12          9.7620    23.9930   -35.9340 C.2          1 MYV500   0.0000
    30 C11         10.6320    22.9910   -35.8750 C.2          1 MYV500   0.0000
    31 O12          9.6320    22.4510   -33.3980 O.3          1 MYV500   0.0000
    32 C35         10.8690    21.8930   -33.7480 C.3          1 MYV500   0.0000
    33 C36         11.6180    21.6980   -32.4180 C.3          1 MYV500   0.0000
    34 C37         10.8070    20.8120   -31.4850 C.3          1 MYV500   0.0000
    35 C1          11.5340    22.9090   -34.6820 C.3          1 MYV500   0.0000
    36 O6          11.5000    24.1890   -34.0050 O.3          1 MYV500   0.0000
    37 C2          12.9460    22.4820   -35.1200 C.3          1 MYV500   0.0000
    38 O1          12.8720    21.3570   -36.0290 O.3          1 MYV500   0.0000
    39 C3          13.2520    21.6880   -37.3640 C.3          1 MYV500   0.0000
    40 C4          14.5870    21.0310   -37.6200 C.3          1 MYV500   0.0000
    41 O2          15.5700    21.5170   -36.7200 O.3          1 MYV500   0.0000
    42 C5          16.7470    20.7370   -36.6240 C.3          1 MYV500   0.0000
    43 O5          12.3480    21.0220   -38.2280 O.3          1 MYV500   0.0000
    44 C9          12.4940    21.4230   -39.5890 C.3          1 MYV500   0.0000
    45 C10         11.2690    20.8450   -40.3090 C.3          1 MYV500   0.0000
    46 C8          13.8140    20.7800   -39.9780 C.3          1 MYV500   0.0000
    47 O4          14.2310    21.0130   -41.3200 O.3          1 MYV500   0.0000
    48 C6          14.9430    21.2540   -39.0730 C.3          1 MYV500   0.0000
    49 O3          15.1090    22.6150   -39.3240 O.3          1 MYV500   0.0000
    50 C7          16.2590    22.6800   -40.0880 C.3          1 MYV500   0.0000
    51 H1           7.1287    23.1585   -32.8284 H            1 MYV500   0.0000
    52 H2           6.0491    21.4758   -34.9428 H            1 MYV500   0.0000
    53 H3           4.9272    23.6655   -33.3386 H            1 MYV500   0.0000
    54 H4           3.4070    22.1521   -32.2553 H            1 MYV500   0.0000
    55 H5           4.1371    20.9049   -33.0158 H            1 MYV500   0.0000
    56 H6           4.9585    21.7793   -31.9079 H            1 MYV500   0.0000
    57 H7           3.2789    22.0040   -35.0021 H            1 MYV500   0.0000
    58 H8           1.4102    22.4988   -33.8749 H            1 MYV500   0.0000
    59 H9          -0.3751    21.7783   -34.9948 H            1 MYV500   0.0000
    60 H10         -1.9075    21.8131   -36.8165 H            1 MYV500   0.0000
    61 H11         -1.0444    23.0138   -37.5093 H            1 MYV500   0.0000
    62 H12         -0.3861    21.5293   -37.3374 H            1 MYV500   0.0000
    63 H13         -2.2908    23.1709   -34.7349 H            1 MYV500   0.0000
    64 H14         -1.4531    24.4301   -35.3509 H            1 MYV500   0.0000
    65 H15         -0.8292    23.0720   -32.8655 H            1 MYV500   0.0000
    66 H16         -2.5987    26.6887   -33.2864 H            1 MYV500   0.0000
    67 H17         -1.2268    26.4365   -34.1354 H            1 MYV500   0.0000
    68 H18         -2.5800    25.5997   -34.5031 H            1 MYV500   0.0000
    69 H19         -3.3932    25.1308   -31.7930 H            1 MYV500   0.0000
    70 H20         -3.4008    23.9333   -32.9033 H            1 MYV500   0.0000
    71 H21         -2.5942    23.7377   -31.4969 H            1 MYV500   0.0000
    72 H22          0.5435    25.2287   -34.2029 H            1 MYV500   0.0000
    73 H23          1.8446    25.5406   -32.5412 H            1 MYV500   0.0000
    74 H24          5.1373    22.7584   -36.3664 H            1 MYV500   0.0000
    75 H25          3.7549    23.5207   -38.1447 H            1 MYV500   0.0000
    76 H26          3.0728    22.2578   -37.3658 H            1 MYV500   0.0000
    77 H27          2.5443    23.7760   -37.0789 H            1 MYV500   0.0000
    78 H28          5.6831    24.7946   -35.4535 H            1 MYV500   0.0000
    79 H29          4.1649    25.3613   -35.6550 H            1 MYV500   0.0000
    80 H30          4.6025    25.1903   -38.0802 H            1 MYV500   0.0000
    81 H31          5.7109    27.2894   -38.2026 H            1 MYV500   0.0000
    82 H32          4.5731    27.3379   -37.0322 H            1 MYV500   0.0000
    83 H33          6.1468    27.1593   -36.6342 H            1 MYV500   0.0000
    84 H34          7.5589    25.1244   -35.8914 H            1 MYV500   0.0000
    85 H35          9.0092    23.6322   -37.9471 H            1 MYV500   0.0000
    86 H36          9.7503    24.6989   -35.2258 H            1 MYV500   0.0000
    87 H37         10.6833    22.3108   -36.6062 H            1 MYV500   0.0000
    88 H38         10.7419    21.0169   -34.2130 H            1 MYV500   0.0000
    89 H39         11.7620    22.5884   -31.9861 H            1 MYV500   0.0000
    90 H40         12.5026    21.2673   -32.5969 H            1 MYV500   0.0000
    91 H41         11.3026    20.6921   -30.6247 H            1 MYV500   0.0000
    92 H42          9.9223    21.2412   -31.3030 H            1 MYV500   0.0000
    93 H43         10.6629    19.9202   -31.9138 H            1 MYV500   0.0000
    94 H44         12.0965    24.1579   -33.2030 H            1 MYV500   0.0000
    95 H45         13.4764    22.2202   -34.3137 H            1 MYV500   0.0000
    96 H46         13.3946    23.2485   -35.5796 H            1 MYV500   0.0000
    97 H47         13.2749    22.6752   -37.5216 H            1 MYV500   0.0000
    98 H48         14.4852    20.0475   -37.4705 H            1 MYV500   0.0000
    99 H49         17.3740    21.1590   -35.9692 H            1 MYV500   0.0000
   100 H50         16.5120    19.8157   -36.3143 H            1 MYV500   0.0000
   101 H51         17.1866    20.6852   -37.5207 H            1 MYV500   0.0000
   102 H52         12.5328    22.4186   -39.6749 H            1 MYV500   0.0000
   103 H53         11.3056    21.0896   -41.2779 H            1 MYV500   0.0000
   104 H54         11.2670    19.8493   -40.2165 H            1 MYV500   0.0000
   105 H55         10.4358    21.2193   -39.9020 H            1 MYV500   0.0000
   106 H56         13.7195    19.7920   -39.8554 H            1 MYV500   0.0000
   107 H57         13.5429    20.6531   -41.9501 H            1 MYV500   0.0000
   108 H58         15.7852    20.7627   -39.2953 H            1 MYV500   0.0000
   109 H59         16.4543    23.6339   -40.3159 H            1 MYV500   0.0000
   110 H60         17.0247    22.2973   -39.5710 H            1 MYV500   0.0000
   111 H61         16.1300    22.1558   -40.9298 H            1 MYV500   0.0000
   112 H62         -1.1115    25.3803   -32.0911 H            1 MYV500   0.0000
@<TRIPOS>BOND
     1    1    2       2
     2    2    3       1
     3    2   31       1
     4    3    4       2
     5    4    5       1
     6    5    6       1
     7    5    7       1
     8    7    8       1
     9    7   20       1
    10    8    9       1
    11    9   10       1
    12    9   18       1
    13   10   11       1
    14   11   12       1
    15   11   13       1
    16   13   14       1
    17   14   15       1
    18   14   18       1
    19   15   16       1
    20   15   17       1
    21   18   19       1
    22   20   21       1
    23   20   22       1
    24   22   23       1
    25   23   24       1
    26   23   25       1
    27   25   26       2
    28   25   27       1
    29   27   28       2
    30   28   29       1
    31   29   30       2
    32   30   35       1
    33   31   32       1
    34   32   33       1
    35   32   35       1
    36   33   34       1
    37   35   36       1
    38   35   37       1
    39   37   38       1
    40   38   39       1
    41   39   40       1
    42   39   43       1
    43   40   41       1
    44   40   48       1
    45   41   42       1
    46   43   44       1
    47   44   45       1
    48   44   46       1
    49   46   47       1
    50   46   48       1
    51   48   49       1
    52   49   50       1
    53    3   51       1
    54    4   52       1
    55    5   53       1
    56    6   54       1
    57    6   55       1
    58    6   56       1
    59    7   57       1
    60    9   58       1
    61   11   59       1
    62   12   60       1
    63   12   61       1
    64   12   62       1
    65   13   63       1
    66   13   64       1
    67   14   65       1
    68   16   66       1
    69   16   67       1
    70   16   68       1
    71   17   69       1
    72   17   70       1
    73   17   71       1
    74   18   72       1
    75   19   73       1
    76   20   74       1
    77   21   75       1
    78   21   76       1
    79   21   77       1
    80   22   78       1
    81   22   79       1
    82   23   80       1
    83   24   81       1
    84   24   82       1
    85   24   83       1
    86   27   84       1
    87   28   85       1
    88   29   86       1
    89   30   87       1
    90   32   88       1
    91   33   89       1
    92   33   90       1
    93   34   91       1
    94   34   92       1
    95   34   93       1
    96   36   94       1
    97   37   95       1
    98   37   96       1
    99   39   97       1
   100   40   98       1
   101   42   99       1
   102   42  100       1
   103   42  101       1
   104   44  102       1
   105   45  103       1
   106   45  104       1
   107   45  105       1
   108   46  106       1
   109   47  107       1
   110   48  108       1
   111   50  109       1
   112   50  110       1
   113   50  111       1
   114   15  112       1
@<TRIPOS>SUBSTRUCTURE
     1 MYV500      1 GROUP             4 B     MYV     0 **** MYV B 500
