@<TRIPOS>MOLECULE
2rjp_886_4_ligand
   66    68     1     0     0
SMALL
NO_CHARGES


@<TRIPOS>ATOM
     1 C1          38.6480    13.3090    59.0570 C.3          1 886510   0.0000
     2 C2          37.9670    11.9430    58.8910 C.3          1 886510   0.0000
     3 C3          38.0340    11.5240    57.4150 C.3          1 886510   0.0000
     4 C4          38.5400    10.9320    59.9200 C.3          1 886510   0.0000
     5 C5          39.2800     9.6800    59.3100 C.2          1 886510   0.0000
     6 O1          38.5120     8.7020    59.0420 O.co2        1 886510   0.0000
     7 O2          40.5300     9.7830    59.1720 O.co2        1 886510  -1.0000
     8 N1          37.3720    10.3900    60.7380 N.3          1 886510   0.0000
     9 S1          37.5400    10.3850    62.4150 S.o2         1 886510   0.0000
    10 O3          36.2130    10.5720    62.9700 O.2          1 886510   0.0000
    11 O4          38.5860    11.3150    62.7930 O.2          1 886510   0.0000
    12 C6          38.0580     8.7550    62.8930 C.ar         1 886510   0.0000
    13 C7          37.2890     7.6500    62.5260 C.ar         1 886510   0.0000
    14 C8          37.6910     6.3670    62.9150 C.ar         1 886510   0.0000
    15 C9          38.8660     6.1630    63.6680 C.ar         1 886510   0.0000
    16 C10         39.6150     7.3000    64.0320 C.ar         1 886510   0.0000
    17 C11         39.2220     8.5860    63.6490 C.ar         1 886510   0.0000
    18 C12         39.2830     4.8130    64.1040 C.ar         1 886510   0.0000
    19 C13         40.3400     4.6410    65.0230 C.ar         1 886510   0.0000
    20 C14         40.7320     3.3660    65.4580 C.ar         1 886510   0.0000
    21 C15         40.0640     2.2200    65.0040 C.ar         1 886510   0.0000
    22 C16         39.0030     2.3760    64.0990 C.ar         1 886510   0.0000
    23 C17         38.6160     3.6520    63.6600 C.ar         1 886510   0.0000
    24 C18         40.4790     0.8490    65.4730 C.3          1 886510   0.0000
    25 O5          41.6910     0.4970    64.8080 O.3          1 886510   0.0000
    26 C19         42.5720    -0.4470    65.2780 C.ar         1 886510   0.0000
    27 C20         43.8930    -0.5440    64.8350 C.ar         1 886510   0.0000
    28 C21         44.7520    -1.5360    65.3380 C.ar         1 886510   0.0000
    29 C22         44.3050    -2.4570    66.2980 C.ar         1 886510   0.0000
    30 C23         42.9750    -2.3630    66.7550 C.ar         1 886510   0.0000
    31 C24         42.1220    -1.3690    66.2410 C.ar         1 886510   0.0000
    32 C25         45.2220    -3.5130    66.8530 C.2          1 886510   0.0000
    33 O6          46.3800    -3.1740    67.1200 O.2          1 886510   0.0000
    34 C26         44.8130    -4.9900    66.8710 C.3          1 886510   0.0000
    35 C27         44.4890    -5.4260    68.3000 C.3          1 886510   0.0000
    36 C28         45.9390    -5.8510    66.2880 C.3          1 886510   0.0000
    37 H1          38.6075    13.5872    60.0167 H            1 886510   0.0000
    38 H2          39.6034    13.2423    58.7693 H            1 886510   0.0000
    39 H3          38.1767    13.9872    58.4931 H            1 886510   0.0000
    40 H4          37.0006    12.0701    59.1143 H            1 886510   0.0000
    41 H5          37.5917    10.6344    57.3006 H            1 886510   0.0000
    42 H6          37.5636    12.2048    56.8536 H            1 886510   0.0000
    43 H7          38.9903    11.4599    57.1298 H            1 886510   0.0000
    44 H8          39.1680    11.4132    60.5316 H            1 886510   0.0000
    45 H9          37.2153     9.4456    60.4489 H            1 886510   0.0000
    46 H10         36.4552     7.7741    61.9880 H            1 886510   0.0000
    47 H11         37.1337     5.5789    62.6537 H            1 886510   0.0000
    48 H12         40.4459     7.1844    64.5763 H            1 886510   0.0000
    49 H13         39.7697     9.3796    63.9140 H            1 886510   0.0000
    50 H14         40.8203     5.4457    65.3719 H            1 886510   0.0000
    51 H15         41.4950     3.2738    66.0978 H            1 886510   0.0000
    52 H16         38.5171     1.5691    63.7630 H            1 886510   0.0000
    53 H17         37.8526     3.7396    63.0200 H            1 886510   0.0000
    54 H18         39.7655     0.1848    65.2499 H            1 886510   0.0000
    55 H19         40.6267     0.8601    66.4620 H            1 886510   0.0000
    56 H20         44.2322     0.1013    64.1505 H            1 886510   0.0000
    57 H21         45.6944    -1.5863    65.0074 H            1 886510   0.0000
    58 H22         42.6374    -3.0032    67.4450 H            1 886510   0.0000
    59 H23         41.1778    -1.3168    66.5663 H            1 886510   0.0000
    60 H24         43.9955    -5.1043    66.3066 H            1 886510   0.0000
    61 H25         44.2234    -6.3901    68.3022 H            1 886510   0.0000
    62 H26         45.2957    -5.3012    68.8776 H            1 886510   0.0000
    63 H27         43.7360    -4.8720    68.6549 H            1 886510   0.0000
    64 H28         45.6652    -6.8127    66.3030 H            1 886510   0.0000
    65 H29         46.1192    -5.5704    65.3452 H            1 886510   0.0000
    66 H30         46.7673    -5.7317    66.8354 H            1 886510   0.0000
@<TRIPOS>BOND
     1    1    2       1
     2    2    3       1
     3    2    4       1
     4    4    5       1
     5    4    8       1
     6    5    6      ar
     7    5    7      ar
     8    8    9       1
     9    9   10       2
    10    9   11       2
    11    9   12       1
    12   12   13      ar
    13   12   17      ar
    14   13   14      ar
    15   14   15      ar
    16   15   16      ar
    17   15   18       1
    18   16   17      ar
    19   18   19      ar
    20   18   23      ar
    21   19   20      ar
    22   20   21      ar
    23   21   22      ar
    24   21   24       1
    25   22   23      ar
    26   24   25       1
    27   25   26       1
    28   26   27      ar
    29   26   31      ar
    30   27   28      ar
    31   28   29      ar
    32   29   30      ar
    33   29   32       1
    34   30   31      ar
    35   32   33       2
    36   32   34       1
    37   34   35       1
    38   34   36       1
    39    1   37       1
    40    1   38       1
    41    1   39       1
    42    2   40       1
    43    3   41       1
    44    3   42       1
    45    3   43       1
    46    4   44       1
    47   36   66       1
    48    8   45       1
    49   13   46       1
    50   14   47       1
    51   16   48       1
    52   17   49       1
    53   19   50       1
    54   20   51       1
    55   22   52       1
    56   23   53       1
    57   24   54       1
    58   24   55       1
    59   27   56       1
    60   28   57       1
    61   30   58       1
    62   31   59       1
    63   34   60       1
    64   35   61       1
    65   35   62       1
    66   35   63       1
    67   36   64       1
    68   36   65       1
@<TRIPOS>SUBSTRUCTURE
     1 886510      1 GROUP             4 D     886     0 **** 886 D 510
