@<TRIPOS>MOLECULE
4krh_SAM_2_ligand
   50    52     1     0     0
SMALL
NO_CHARGES


@<TRIPOS>ATOM
     1 N          -45.6580    69.4550    83.8970 N.4          1 SAM900   1.0000
     2 CA         -45.0530    69.3830    85.2020 C.3          1 SAM900   0.0000
     3 C          -45.5600    68.2240    85.9990 C.2          1 SAM900   0.0000
     4 O          -46.2550    67.3290    85.4470 O.co2        1 SAM900   0.0000
     5 OXT        -45.2960    68.1320    87.2270 O.co2        1 SAM900  -1.0000
     6 CB         -45.3390    70.6880    85.8930 C.3          1 SAM900   0.0000
     7 CG         -44.2540    71.7090    85.9160 C.3          1 SAM900   0.0000
     8 SD         -44.6000    73.2930    86.7570 S.3          1 SAM900   1.0000
     9 CE         -46.2480    73.9350    86.4910 C.3          1 SAM900   0.0000
    10 C5'        -43.3930    74.5280    86.2310 C.3          1 SAM900   0.0000
    11 C4'        -42.0070    74.2650    86.4740 C.3          1 SAM900   0.0000
    12 O4'        -41.2010    75.0810    85.5650 O.3          1 SAM900   0.0000
    13 C3'        -41.6370    74.7150    87.8200 C.3          1 SAM900   0.0000
    14 O3'        -41.4190    73.6390    88.6480 O.3          1 SAM900   0.0000
    15 C2'        -40.3890    75.4760    87.6650 C.3          1 SAM900   0.0000
    16 O2'        -39.4280    74.9720    88.4840 O.3          1 SAM900   0.0000
    17 C1'        -39.9970    75.2780    86.2380 C.3          1 SAM900   0.0000
    18 N9         -39.2010    76.4120    85.8410 N.pl3        1 SAM900   0.0000
    19 C8         -39.4680    77.7220    85.9010 C.2          1 SAM900   0.0000
    20 N7         -38.3910    78.3600    85.4130 N.2          1 SAM900   0.0000
    21 C5         -37.4550    77.4520    85.0550 C.ar         1 SAM900   0.0000
    22 C6         -36.1740    77.5460    84.5060 C.ar         1 SAM900   0.0000
    23 N6         -35.5990    78.8310    84.2020 N.pl3        1 SAM900   0.0000
    24 N1         -35.4880    76.4160    84.2650 N.ar         1 SAM900   0.0000
    25 C2         -36.0170    75.2180    84.5450 C.ar         1 SAM900   0.0000
    26 N3         -37.2400    75.0970    85.0710 N.ar         1 SAM900   0.0000
    27 C4         -37.9730    76.1910    85.3350 C.ar         1 SAM900   0.0000
    28 H1         -45.7025    70.4096    83.6024 H            1 SAM900   0.0000
    29 H2         -45.1095    68.9304    83.2459 H            1 SAM900   0.0000
    30 HA         -44.0636    69.2884    85.0921 H            1 SAM900   0.0000
    31 HB1        -45.5730    70.4787    86.8425 H            1 SAM900   0.0000
    32 HB2        -46.1283    71.1005    85.4383 H            1 SAM900   0.0000
    33 HG1        -44.0210    71.9192    84.9665 H            1 SAM900   0.0000
    34 HG2        -43.4642    71.2959    86.3695 H            1 SAM900   0.0000
    35 HE1        -46.3527    74.7990    86.9835 H            1 SAM900   0.0000
    36 HE2        -46.3920    74.0890    85.5135 H            1 SAM900   0.0000
    37 HE3        -46.9208    73.2760    86.8273 H            1 SAM900   0.0000
    38 H5'1       -43.6193    75.3821    86.6992 H            1 SAM900   0.0000
    39 H5'2       -43.5034    74.6492    85.2445 H            1 SAM900   0.0000
    40 H4'        -41.8031    73.2932    86.3552 H            1 SAM900   0.0000
    41 H3'        -42.3541    75.3011    88.1972 H            1 SAM900   0.0000
    42 H15        -40.6773    73.0791    88.2787 H            1 SAM900   0.0000
    43 H2'        -40.5418    76.4455    87.8567 H            1 SAM900   0.0000
    44 H17        -38.9184    74.2599    88.0011 H            1 SAM900   0.0000
    45 H1'        -39.4428    74.4489    86.1642 H            1 SAM900   0.0000
    46 H19        -40.3073    78.1445    86.2431 H            1 SAM900   0.0000
    47 H20        -34.6812    78.8878    83.8091 H            1 SAM900   0.0000
    48 H21        -36.1176    79.6665    84.3838 H            1 SAM900   0.0000
    49 H22        -35.4839    74.3934    84.3559 H            1 SAM900   0.0000
    50 H23        -46.5821    69.0750    83.9366 H            1 SAM900   0.0000
@<TRIPOS>BOND
     1    1    2       1
     2    2    3       1
     3    2    6       1
     4    3    4      ar
     5    3    5      ar
     6    6    7       1
     7    7    8       1
     8    8    9       1
     9    8   10       1
    10   10   11       1
    11   11   12       1
    12   11   13       1
    13   12   17       1
    14   13   14       1
    15   13   15       1
    16   15   16       1
    17   15   17       1
    18   17   18       1
    19   18   19       1
    20   18   27       1
    21   19   20       2
    22   20   21       1
    23   21   22      ar
    24   21   27      ar
    25   22   23       1
    26   22   24      ar
    27   24   25      ar
    28   25   26      ar
    29   26   27      ar
    30    1   28       1
    31    1   29       1
    32    2   30       1
    33    1   50       1
    34    6   31       1
    35    6   32       1
    36    7   33       1
    37    7   34       1
    38    9   35       1
    39    9   36       1
    40    9   37       1
    41   10   38       1
    42   10   39       1
    43   11   40       1
    44   13   41       1
    45   14   42       1
    46   15   43       1
    47   16   44       1
    48   17   45       1
    49   19   46       1
    50   23   47       1
    51   23   48       1
    52   25   49       1
@<TRIPOS>SUBSTRUCTURE
     1 SAM900      1 GROUP             4 B     SAM     0 **** SAM B 900
