@<TRIPOS>MOLECULE
2zfi_ADP_1_ligand
   39    41     1     0     0
SMALL
NO_CHARGES


@<TRIPOS>ATOM
     1 PB          24.2290   -19.8800     7.1830 P.3          1 ADP2000   0.0000
     2 O1B         25.5960   -20.0570     6.6540 O.co2        1 ADP2000   0.0000
     3 O2B         23.4850   -21.2260     7.1920 O.co2        1 ADP2000  -1.0000
     4 O3B         24.1920   -19.3320     8.5370 O.co2        1 ADP2000  -1.0000
     5 PA          22.8360   -17.4450     6.4320 P.3          1 ADP2000   0.0000
     6 O1A         21.9920   -17.4560     7.6430 O.co2        1 ADP2000   0.0000
     7 O2A         23.9530   -16.4320     6.5380 O.co2        1 ADP2000  -1.0000
     8 O3A         23.5120   -18.8880     6.2060 O.3          1 ADP2000   0.0000
     9 O5'         21.9680   -17.1360     5.2060 O.3          1 ADP2000   0.0000
    10 C5'         22.7100   -16.7470     4.0770 C.3          1 ADP2000   0.0000
    11 C4'         22.1970   -15.5090     3.4410 C.3          1 ADP2000   0.0000
    12 O4'         20.8460   -15.6580     3.0420 O.3          1 ADP2000   0.0000
    13 C3'         22.2680   -14.2400     4.2660 C.3          1 ADP2000   0.0000
    14 O3'         22.9400   -13.2510     3.4700 O.3          1 ADP2000   0.0000
    15 C2'         20.7800   -13.9480     4.6100 C.3          1 ADP2000   0.0000
    16 O2'         20.4140   -12.5600     4.6700 O.3          1 ADP2000   0.0000
    17 C1'         19.9580   -14.7580     3.5820 C.3          1 ADP2000   0.0000
    18 N9          18.7890   -15.4680     4.1270 N.pl3        1 ADP2000   0.0000
    19 C8          18.7080   -16.7000     4.7030 C.2          1 ADP2000   0.0000
    20 N7          17.4510   -17.0770     4.9930 N.2          1 ADP2000   0.0000
    21 C5          16.6710   -16.0410     4.4920 C.ar         1 ADP2000   0.0000
    22 C6          15.2540   -15.8790     4.3850 C.ar         1 ADP2000   0.0000
    23 N6          14.3660   -16.7680     4.8440 N.pl3        1 ADP2000   0.0000
    24 N1          14.7990   -14.7080     3.7900 N.ar         1 ADP2000   0.0000
    25 C2          15.7220   -13.7610     3.3620 C.ar         1 ADP2000   0.0000
    26 N3          17.0430   -13.8260     3.4210 N.ar         1 ADP2000   0.0000
    27 C4          17.4750   -15.0250     3.9810 C.ar         1 ADP2000   0.0000
    28 H5'1        22.6780   -17.4868     3.4049 H            1 ADP2000   0.0000
    29 H5'2        23.6574   -16.5918     4.3570 H            1 ADP2000   0.0000
    30 H4'         22.7360   -15.3553     2.6128 H            1 ADP2000   0.0000
    31 H3'         22.7843   -14.4088     5.1056 H            1 ADP2000   0.0000
    32 H5          23.9242   -13.2986     3.6403 H            1 ADP2000   0.0000
    33 H2'         20.6003   -14.3421     5.5113 H            1 ADP2000   0.0000
    34 H7          21.2149   -11.9952     4.4713 H            1 ADP2000   0.0000
    35 H1'         19.6492   -14.1394     2.8595 H            1 ADP2000   0.0000
    36 H9          19.5078   -17.2697     4.8920 H            1 ADP2000   0.0000
    37 H10         13.3865   -16.5965     4.7384 H            1 ADP2000   0.0000
    38 H11         14.6817   -17.6041     5.2927 H            1 ADP2000   0.0000
    39 H12         15.3415   -12.9281     2.9601 H            1 ADP2000   0.0000
@<TRIPOS>BOND
     1    1    2      ar
     2    1    3      ar
     3    1    4      ar
     4    1    8       1
     5    5    6      ar
     6    5    7      ar
     7    5    8       1
     8    5    9       1
     9    9   10       1
    10   10   11       1
    11   11   12       1
    12   11   13       1
    13   12   17       1
    14   13   14       1
    15   13   15       1
    16   15   16       1
    17   15   17       1
    18   17   18       1
    19   18   19       1
    20   18   27       1
    21   19   20       2
    22   20   21       1
    23   21   22      ar
    24   21   27      ar
    25   22   23       1
    26   22   24      ar
    27   24   25      ar
    28   25   26      ar
    29   26   27      ar
    30   25   39       1
    31   23   38       1
    32   23   37       1
    33   10   28       1
    34   10   29       1
    35   11   30       1
    36   13   31       1
    37   14   32       1
    38   15   33       1
    39   16   34       1
    40   17   35       1
    41   19   36       1
@<TRIPOS>SUBSTRUCTURE
     1 ADP2000     1 GROUP             4 A     ADP     0 **** ADP A2000
