@<TRIPOS>MOLECULE
./coach420/3ftf/ligand.pdb
 26 28 0 0 0
SMALL
GASTEIGER

@<TRIPOS>ATOM
      1  N         11.6870   -5.3910    1.1580 N.3   501  SAH501     -0.1208
      2  CA        12.3440   -4.7810   -0.0340 C.3   501  SAH501      0.1952
      3  CB        13.7400   -4.2380    0.2710 C.3   501  SAH501      0.0422
      4  CG        14.0350   -3.8710    1.7240 C.3   501  SAH501      0.0597
      5  SD        15.8080   -3.6370    2.0070 S.3   501  SAH501     -0.1375
      6  C         12.4310   -5.7980   -1.1650 C.2   501  SAH501      0.3819
      7  O         12.5620   -6.9980   -0.9260 O.co2 501  SAH501     -0.2441
      8  OXT       12.3690   -5.4460   -2.3440 O.co2 501  SAH501     -0.2441
      9  C5'       15.5400   -1.9300    2.5610 C.3   501  SAH501      0.0898
     10  C4'       15.4420   -0.8980    1.4390 C.3   501  SAH501      0.1610
     11  O4'       15.4140    0.4070    1.9860 O.3   501  SAH501     -0.3323
     12  C3'       16.6290   -0.9530    0.4890 C.3   501  SAH501      0.2144
     13  O3'       16.1620   -1.1430   -0.8280 O.3   501  SAH501     -0.2176
     14  C2'       17.3300    0.3860    0.6310 C.3   501  SAH501      0.2337
     15  O2'       17.7370    0.8960   -0.6180 O.3   501  SAH501     -0.2155
     16  C1'       16.2750    1.2740    1.2710 C.3   501  SAH501      0.2409
     17  N9        16.8320    2.3030    2.1750 N.ar  501  SAH501     -0.2693
     18  C8        18.0840    2.3450    2.7380 C.ar  501  SAH501      0.1816
     19  N7        18.1790    3.4570    3.5030 N.ar  501  SAH501     -0.2193
     20  C5        17.0070    4.1270    3.4380 C.ar  501  SAH501      0.1518
     21  C6        16.5660    5.3120    4.0210 C.ar  501  SAH501      0.1919
     22  N6        17.3760    6.0030    4.8160 N.pl3 501  SAH501     -0.1054
     23  N1        15.2850    5.7660    3.7690 N.ar  501  SAH501     -0.2040
     24  C2        14.4460    5.0440    2.9400 C.ar  501  SAH501      0.2016
     25  N3        14.8910    3.8670    2.3650 N.ar  501  SAH501     -0.2048
     26  C4        16.1510    3.4140    2.6080 C.ar  501  SAH501      0.1692
@<TRIPOS>BOND
     1     1     2    1
     2     2     6    1
     3     2     3    1
     4     3     4    1
     5     4     5    1
     6     5     9    1
     7     6     8   ar
     8     6     7   ar
     9     9    10    1
    10    10    12    1
    11    10    11    1
    12    11    16    1
    13    12    13    1
    14    12    14    1
    15    14    15    1
    16    14    16    1
    17    16    17    1
    18    17    26   ar
    19    17    18   ar
    20    18    19   ar
    21    19    20   ar
    22    20    26   ar
    23    20    21   ar
    24    21    23   ar
    25    21    22    1
    26    23    24   ar
    27    24    25   ar
    28    25    26   ar
