@<TRIPOS>MOLECULE
4jbs_P52_1_ligand
   73    75     1     0     0
SMALL
NO_CHARGES


@<TRIPOS>ATOM
     1 O1          20.5360     5.5820     0.7930 O.co2        1 P521009   0.0000
     2 O2          20.1780     3.2700     0.2710 O.co2        1 P521009  -1.0000
     3 C1          16.8340     3.4090     3.0480 C.3          1 P521009   0.0000
     4 C2          15.8140     2.2780     3.0250 C.ar         1 P521009   0.0000
     5 C3          14.4530     2.4320     2.8050 C.ar         1 P521009   0.0000
     6 C4          13.6460     1.2870     2.7930 C.ar         1 P521009   0.0000
     7 C5          14.1200     0.0270     2.9840 C.ar         1 P521009   0.0000
     8 C6          15.4950    -0.1410     3.2040 C.ar         1 P521009   0.0000
     9 N1          17.6300     5.1390     0.5840 N.4          1 P521009   1.0000
    10 C7          16.3150     0.9970     3.2190 C.ar         1 P521009   0.0000
    11 C8          17.6830     3.3060     1.7870 C.3          1 P521009   0.0000
    12 O3          19.5300     1.0650     2.3080 O.2          1 P521009   0.0000
    13 C9          18.2340     4.5180     1.5380 C.3          1 P521009   0.0000
    14 C10         20.5060     1.3720     2.9700 C.2          1 P521009   0.0000
    15 C11         20.6630     3.9370     2.6540 C.3          1 P521009   0.0000
    16 C12         21.3810     2.5530     2.5660 C.3          1 P521009   0.0000
    17 N2          20.6530     0.7810     4.2640 N.am         1 P521009   0.0000
    18 C13         22.6460     2.6050     3.4800 C.3          1 P521009   0.0000
    19 C14         23.9490     2.1440     2.8080 C.3          1 P521009   0.0000
    20 C15         24.9390     3.3000     2.6390 C.3          1 P521009   0.0000
    21 C16         23.5850     1.5330     1.4510 C.3          1 P521009   0.0000
    22 C17         21.0760    -0.3830     5.0410 C.3          1 P521009   0.0000
    23 N3          18.8140    -2.0220     1.4600 N.pl3        1 P521009   0.0000
    24 P1          19.9710     4.3240     1.2620 P.3          1 P521009   0.0000
    25 C18         22.4550    -0.8760     4.6060 C.2          1 P521009   0.0000
    26 C19         20.0550    -1.5140     4.9130 C.3          1 P521009   0.0000
    27 C20         19.7780    -1.8930     3.4870 C.2          1 P521009   0.0000
    28 C21         18.7280    -1.4770     2.7220 C.2          1 P521009   0.0000
    29 C22         20.5720    -2.7490     2.6480 C.ar         1 P521009   0.0000
    30 C23         19.9360    -2.8080     1.3900 C.ar         1 P521009   0.0000
    31 C24         21.7540    -3.4770     2.8410 C.ar         1 P521009   0.0000
    32 C25         20.4450    -3.5650     0.3260 C.ar         1 P521009   0.0000
    33 C26         22.2550    -4.2280     1.7780 C.ar         1 P521009   0.0000
    34 C27         21.6000    -4.2630     0.5420 C.ar         1 P521009   0.0000
    35 O4          22.8200    -0.7700     3.4380 O.2          1 P521009   0.0000
    36 N4          23.2750    -1.6050     5.5220 N.am         1 P521009   0.0000
    37 H1          17.4162     3.3240     3.8566 H            1 P521009   0.0000
    38 H2          16.3623     4.2905     3.0680 H            1 P521009   0.0000
    39 H3          14.0574     3.3387     2.6585 H            1 P521009   0.0000
    40 H4          12.6654     1.4029     2.6349 H            1 P521009   0.0000
    41 H5          13.5036    -0.7603     2.9680 H            1 P521009   0.0000
    42 H6          15.8822    -1.0519     3.3470 H            1 P521009   0.0000
    43 H7          18.0675     6.0256     0.4339 H            1 P521009   0.0000
    44 H8          17.6827     4.5952    -0.2536 H            1 P521009   0.0000
    45 H9          17.2960     0.8819     3.3750 H            1 P521009   0.0000
    46 H10         17.1088     3.0319     1.0155 H            1 P521009   0.0000
    47 H11         18.4059     2.6284     1.9218 H            1 P521009   0.0000
    48 H12         18.1252     5.0687     2.3656 H            1 P521009   0.0000
    49 H13         21.3357     4.6385     2.8894 H            1 P521009   0.0000
    50 H14         19.9618     3.8954     3.3658 H            1 P521009   0.0000
    51 H15         21.6807     2.4138     1.6222 H            1 P521009   0.0000
    52 H16         20.3237     1.4570     4.9232 H            1 P521009   0.0000
    53 H17         22.4808     2.0182     4.2727 H            1 P521009   0.0000
    54 H18         22.7707     3.5493     3.7845 H            1 P521009   0.0000
    55 H19         24.3721     1.4381     3.3760 H            1 P521009   0.0000
    56 H20         25.7722     2.9638     2.1999 H            1 P521009   0.0000
    57 H21         24.5265     4.0117     2.0704 H            1 P521009   0.0000
    58 H22         25.1648     3.6793     3.5363 H            1 P521009   0.0000
    59 H23         24.4171     1.2237     0.9907 H            1 P521009   0.0000
    60 H24         22.9718     0.7552     1.5893 H            1 P521009   0.0000
    61 H25         23.1284     2.2213     0.8872 H            1 P521009   0.0000
    62 H26         21.1281    -0.1154     6.0031 H            1 P521009   0.0000
    63 H27         18.1640    -1.8694     0.7156 H            1 P521009   0.0000
    64 H28         19.1984    -1.2200     5.3371 H            1 P521009   0.0000
    65 H29         20.4066    -2.3171     5.3940 H            1 P521009   0.0000
    66 H30         18.0009    -0.8648     3.0326 H            1 P521009   0.0000
    67 H31         22.2277    -3.4583     3.7215 H            1 P521009   0.0000
    68 H32         19.9801    -3.5934    -0.5589 H            1 P521009   0.0000
    69 H33         23.0982    -4.7513     1.9014 H            1 P521009   0.0000
    70 H34         21.9857    -4.8112    -0.2001 H            1 P521009   0.0000
    71 H35         24.1777    -1.9277     5.2373 H            1 P521009   0.0000
    72 H36         22.9460    -1.7923     6.4476 H            1 P521009   0.0000
    73 H37         16.6711     5.2780     0.8314 H            1 P521009   0.0000
@<TRIPOS>BOND
     1    1   24      ar
     2    2   24      ar
     3    3    4       1
     4    3   11       1
     5    4    5      ar
     6    4   10      ar
     7    5    6      ar
     8    6    7      ar
     9    7    8      ar
    10    8   10      ar
    11    9   13       1
    12   11   13       1
    13   12   14       2
    14   13   24       1
    15   14   16       1
    16   14   17      am
    17   15   16       1
    18   15   24       1
    19   16   18       1
    20   17   22       1
    21   18   19       1
    22   19   20       1
    23   19   21       1
    24   22   25       1
    25   22   26       1
    26   23   28       1
    27   23   30       1
    28   25   35       2
    29   25   36      am
    30   26   27       1
    31   27   28       2
    32   27   29       1
    33   29   30      ar
    34   29   31      ar
    35   30   32      ar
    36   31   33      ar
    37   32   34      ar
    38   33   34      ar
    39   36   72       1
    40    3   37       1
    41    3   38       1
    42    5   39       1
    43    6   40       1
    44    7   41       1
    45    8   42       1
    46    9   43       1
    47    9   44       1
    48   10   45       1
    49   11   46       1
    50   11   47       1
    51   13   48       1
    52   15   49       1
    53   15   50       1
    54   16   51       1
    55   17   52       1
    56   18   53       1
    57   18   54       1
    58   19   55       1
    59   20   56       1
    60   20   57       1
    61   20   58       1
    62   21   59       1
    63   21   60       1
    64   21   61       1
    65   22   62       1
    66   23   63       1
    67   26   64       1
    68   26   65       1
    69   28   66       1
    70   31   67       1
    71   32   68       1
    72   33   69       1
    73   34   70       1
    74   36   71       1
    75    9   73       1
@<TRIPOS>SUBSTRUCTURE
     1 P521009     1 GROUP             4 A     P52     0 **** P52 A1009
