@<TRIPOS>MOLECULE
4qbj_NHM_1_ligand
  124   126     1     0     0
SMALL
NO_CHARGES


@<TRIPOS>ATOM
     1 N6A         27.1470     2.4180    18.6720 N.pl3        1 NHM504   0.0000
     2 C6A         27.9150     3.0050    17.7830 C.ar         1 NHM504   0.0000
     3 N1A         27.6590     4.2330    17.4870 N.ar         1 NHM504   0.0000
     4 C2A         28.4130     4.8810    16.6200 C.ar         1 NHM504   0.0000
     5 N3A         29.4570     4.4860    15.9520 N.ar         1 NHM504   0.0000
     6 C4A         29.8010     3.0990    16.2340 C.ar         1 NHM504   0.0000
     7 C5A         29.0180     2.3510    17.1850 C.ar         1 NHM504   0.0000
     8 N9A         30.7710     2.2530    15.7530 N.pl3        1 NHM504   0.0000
     9 N7A         29.4590     1.0570    17.3680 N.2          1 NHM504   0.0000
    10 C8A         30.5130     1.0950    16.4890 C.2          1 NHM504   0.0000
    11 CEM         23.1820    15.3830    10.4190 C.3          1 NHM504   0.0000
    12 CAM         24.3380    10.5810    11.7730 C.3          1 NHM504   0.0000
    13 CBM         23.2650    11.6260    11.2880 C.3          1 NHM504   0.0000
    14 CCM         23.8070    13.0580    11.0760 C.3          1 NHM504   0.0000
    15 CDM         22.6310    13.9980    10.7700 C.3          1 NHM504   0.0000
    16 C9M         24.9250    10.9990    13.1700 C.3          1 NHM504   0.0000
    17 C8M         25.9390     9.9700    13.7510 C.3          1 NHM504   0.0000
    18 C7M         25.2690     8.5920    14.0800 C.3          1 NHM504   0.0000
    19 C6M         26.2470     7.5800    14.7340 C.3          1 NHM504   0.0000
    20 C2M         23.0780     5.0370    17.6430 C.3          1 NHM504   0.0000
    21 C3M         24.0850     4.8640    16.4800 C.3          1 NHM504   0.0000
    22 C4M         24.5320     6.2800    16.0860 C.3          1 NHM504   0.0000
    23 C5M         25.5380     6.2320    14.9430 C.3          1 NHM504   0.0000
    24 C1M         22.2530     3.8000    17.9700 C.2          1 NHM504   0.0000
    25 O1M         21.7150     3.1750    17.0470 O.2          1 NHM504   0.0000
    26 CP          22.1500     3.3380    19.4370 C.3          1 NHM504   0.0000
    27 P3X         36.6060     2.7170    14.1250 P.3          1 NHM504   0.0000
    28 O7A         37.5160     3.3350    15.2970 O.co2        1 NHM504   0.0000
    29 O8A         36.9910     1.1490    13.9770 O.co2        1 NHM504  -1.0000
    30 O9A         36.7570     3.5200    12.7300 O.co2        1 NHM504  -1.0000
    31 O3X         35.0380     2.8730    14.4980 O.3          1 NHM504   0.0000
    32 S1          23.6090     2.3680    19.8310 S.3          1 NHM504   0.0000
    33 N4          23.6180    -0.8700    17.5360 N.am         1 NHM504   0.0000
    34 C5          23.9650    -2.1340    17.8690 C.2          1 NHM504   0.0000
    35 O5          24.6740    -2.4070    18.8320 O.2          1 NHM504   0.0000
    36 C6          23.4040    -3.3230    17.0900 C.3          1 NHM504   0.0000
    37 C7          24.2180    -4.5620    17.4370 C.3          1 NHM504   0.0000
    38 N8          25.5980    -4.3940    16.9140 N.am         1 NHM504   0.0000
    39 C9          25.9340    -4.1150    15.6580 C.2          1 NHM504   0.0000
    40 O9          25.2430    -4.2380    14.6290 O.2          1 NHM504   0.0000
    41 C13         26.5500    -1.7430    13.6510 C.3          1 NHM504   0.0000
    42 C11         27.4860    -2.1280    14.8640 C.3          1 NHM504   0.0000
    43 C14         27.0970    -1.1660    15.9890 C.3          1 NHM504   0.0000
    44 C12         28.9720    -1.9680    14.5030 C.3          1 NHM504   0.0000
    45 P1A         32.0720    -1.8390    11.5160 P.3          1 NHM504   0.0000
    46 O2A         33.1430    -2.7810    10.7860 O.co2        1 NHM504   0.0000
    47 O1A         30.8240    -1.7500    10.5000 O.co2        1 NHM504  -1.0000
    48 O3A         31.6700    -2.3470    12.9400 O.3          1 NHM504   0.0000
    49 O5X         32.7530    -0.4440    11.7820 O.3          1 NHM504   0.0000
    50 C4X         33.3320     1.3820    13.4310 C.3          1 NHM504   0.0000
    51 O4X         31.9650     1.7640    13.6830 O.3          1 NHM504   0.0000
    52 C1X         31.8860     2.5780    14.8310 C.3          1 NHM504   0.0000
    53 C2X         33.1110     2.2060    15.6900 C.3          1 NHM504   0.0000
    54 O2X         33.5400     3.2810    16.5400 O.3          1 NHM504   0.0000
    55 C3X         34.1640     1.7320    14.6930 C.3          1 NHM504   0.0000
    56 C5X         33.2910    -0.1180    13.0960 C.3          1 NHM504   0.0000
    57 P2A         30.6330    -3.5140    13.0720 P.3          1 NHM504   0.0000
    58 O4A         30.8600    -4.3580    14.3920 O.co2        1 NHM504   0.0000
    59 O5A         30.5330    -4.4020    11.7540 O.co2        1 NHM504  -1.0000
    60 O6A         29.2050    -2.8420    13.3940 O.3          1 NHM504   0.0000
    61 C10         27.3210    -3.4740    15.6430 C.3          1 NHM504   0.0000
    62 O10         28.3540    -4.4170    15.5130 O.3          1 NHM504   0.0000
    63 C3          24.1910     0.3390    18.2200 C.3          1 NHM504   0.0000
    64 C2          23.0770     0.8240    19.1250 C.3          1 NHM504   0.0000
    65 H6A1        27.3151     1.4658    18.9271 H            1 NHM504   0.0000
    66 H6A2        26.3941     2.9232    19.0938 H            1 NHM504   0.0000
    67 H2A         28.1381     5.8271    16.4489 H            1 NHM504   0.0000
    68 H8A         31.0973     0.2914    16.3757 H            1 NHM504   0.0000
    69 HEM1        22.4232    16.0025    10.2180 H            1 NHM504   0.0000
    70 HEM2        23.7069    15.7387    11.1923 H            1 NHM504   0.0000
    71 HEM3        23.7758    15.3122     9.6175 H            1 NHM504   0.0000
    72 HAM1        25.0802    10.5376    11.1043 H            1 NHM504   0.0000
    73 HAM2        23.9082     9.6816    11.8529 H            1 NHM504   0.0000
    74 HBM1        22.5378    11.6665    11.9733 H            1 NHM504   0.0000
    75 HBM2        22.8873    11.3043    10.4198 H            1 NHM504   0.0000
    76 HCM1        24.4488    13.0634    10.3091 H            1 NHM504   0.0000
    77 HCM2        24.2750    13.3654    11.9045 H            1 NHM504   0.0000
    78 HDM1        22.1068    13.6395     9.9975 H            1 NHM504   0.0000
    79 HDM2        22.0380    14.0660    11.5723 H            1 NHM504   0.0000
    80 H9M1        24.1674    11.0958    13.8155 H            1 NHM504   0.0000
    81 H9M2        25.3900    11.8783    13.0676 H            1 NHM504   0.0000
    82 H8M1        26.3315    10.3450    14.5908 H            1 NHM504   0.0000
    83 H8M2        26.6660     9.8218    13.0805 H            1 NHM504   0.0000
    84 H7M1        24.9224     8.1956    13.2298 H            1 NHM504   0.0000
    85 H7M2        24.5076     8.7504    14.7086 H            1 NHM504   0.0000
    86 H6M1        26.5511     7.9358    15.6177 H            1 NHM504   0.0000
    87 H6M2        27.0385     7.4498    14.1369 H            1 NHM504   0.0000
    88 H2M1        22.4480     5.7747    17.4005 H            1 NHM504   0.0000
    89 H2M2        23.5913     5.2928    18.4622 H            1 NHM504   0.0000
    90 H3M1        23.6447     4.4111    15.7047 H            1 NHM504   0.0000
    91 H3M2        24.8710     4.3231    16.7795 H            1 NHM504   0.0000
    92 H4M1        24.9553     6.7220    16.8768 H            1 NHM504   0.0000
    93 H4M2        23.7330     6.8075    15.7974 H            1 NHM504   0.0000
    94 H5M1        26.2254     5.5354    15.1484 H            1 NHM504   0.0000
    95 H5M2        25.0570     5.9875    14.1011 H            1 NHM504   0.0000
    96 HP1         21.3300     2.7786    19.5579 H            1 NHM504   0.0000
    97 HP2         22.1017     4.1349    20.0392 H            1 NHM504   0.0000
    98 H34         22.9514    -0.7341    16.8031 H            1 NHM504   0.0000
    99 H35         23.4678    -3.1425    16.1085 H            1 NHM504   0.0000
   100 H36         22.4469    -3.4681    17.3407 H            1 NHM504   0.0000
   101 H37         23.7970    -5.3677    17.0203 H            1 NHM504   0.0000
   102 H38         24.2472    -4.6771    18.4299 H            1 NHM504   0.0000
   103 H39         26.3460    -4.5009    17.5691 H            1 NHM504   0.0000
   104 H40         26.7515    -2.3376    12.8727 H            1 NHM504   0.0000
   105 H41         25.5933    -1.8572    13.9188 H            1 NHM504   0.0000
   106 H42         26.7127    -0.7905    13.3937 H            1 NHM504   0.0000
   107 H43         27.6556    -1.3545    16.7968 H            1 NHM504   0.0000
   108 H44         27.2503    -0.2241    15.6901 H            1 NHM504   0.0000
   109 H45         26.1310    -1.2909    16.2152 H            1 NHM504   0.0000
   110 H46         29.5478    -2.2288    15.2779 H            1 NHM504   0.0000
   111 H47         29.1672    -1.0214    14.2464 H            1 NHM504   0.0000
   112 H4X         33.6834     1.8916    12.6456 H            1 NHM504   0.0000
   113 H1X         31.8899     3.5488    14.5910 H            1 NHM504   0.0000
   114 H2X         32.8606     1.4311    16.2704 H            1 NHM504   0.0000
   115 H51         34.3338     2.9881    17.0730 H            1 NHM504   0.0000
   116 H3X         34.6655     0.9377    15.0360 H            1 NHM504   0.0000
   117 H5X1        34.2251    -0.4718    13.1446 H            1 NHM504   0.0000
   118 H5X2        32.7258    -0.5735    13.7838 H            1 NHM504   0.0000
   119 H55         27.4253    -3.1796    16.5930 H            1 NHM504   0.0000
   120 H56         28.8775    -4.2256    14.6828 H            1 NHM504   0.0000
   121 H57         24.4347     1.0415    17.5513 H            1 NHM504   0.0000
   122 H58         24.9994     0.0930    18.7547 H            1 NHM504   0.0000
   123 H59         22.2397     0.9597    18.5954 H            1 NHM504   0.0000
   124 H60         22.9085     0.1557    19.8496 H            1 NHM504   0.0000
@<TRIPOS>BOND
     1    1    2       1
     2    2    3      ar
     3    2    7      ar
     4    3    4      ar
     5    4    5      ar
     6    5    6      ar
     7    6    7      ar
     8    6    8       1
     9    7    9       1
    10    8   10       1
    11    8   52       1
    12    9   10       2
    13   11   15       1
    14   12   13       1
    15   12   16       1
    16   13   14       1
    17   14   15       1
    18   16   17       1
    19   17   18       1
    20   18   19       1
    21   19   23       1
    22   20   21       1
    23   20   24       1
    24   21   22       1
    25   22   23       1
    26   24   25       2
    27   24   26       1
    28   26   32       1
    29   27   28      ar
    30   27   29      ar
    31   27   30      ar
    32   27   31       1
    33   31   55       1
    34   32   64       1
    35   33   34      am
    36   33   63       1
    37   34   35       2
    38   34   36       1
    39   36   37       1
    40   37   38       1
    41   38   39      am
    42   39   40       2
    43   39   61       1
    44   41   42       1
    45   42   43       1
    46   42   44       1
    47   42   61       1
    48   44   60       1
    49   45   46      ar
    50   45   47      ar
    51   45   48       1
    52   45   49       1
    53   48   57       1
    54   49   56       1
    55   50   51       1
    56   50   55       1
    57   50   56       1
    58   51   52       1
    59   52   53       1
    60   53   54       1
    61   53   55       1
    62   57   58      ar
    63   57   59      ar
    64   57   60       1
    65   61   62       1
    66   63   64       1
    67    1   65       1
    68    1   66       1
    69    4   67       1
    70   10   68       1
    71   11   69       1
    72   11   70       1
    73   11   71       1
    74   12   72       1
    75   12   73       1
    76   13   74       1
    77   13   75       1
    78   14   76       1
    79   14   77       1
    80   15   78       1
    81   15   79       1
    82   16   80       1
    83   16   81       1
    84   17   82       1
    85   17   83       1
    86   18   84       1
    87   18   85       1
    88   19   86       1
    89   19   87       1
    90   20   88       1
    91   20   89       1
    92   21   90       1
    93   21   91       1
    94   22   92       1
    95   22   93       1
    96   23   94       1
    97   23   95       1
    98   26   96       1
    99   26   97       1
   100   64  124       1
   101   64  123       1
   102   33   98       1
   103   36   99       1
   104   36  100       1
   105   37  101       1
   106   37  102       1
   107   38  103       1
   108   41  104       1
   109   41  105       1
   110   41  106       1
   111   43  107       1
   112   43  108       1
   113   43  109       1
   114   44  110       1
   115   44  111       1
   116   63  122       1
   117   50  112       1
   118   52  113       1
   119   53  114       1
   120   54  115       1
   121   55  116       1
   122   56  117       1
   123   56  118       1
   124   63  121       1
   125   61  119       1
   126   62  120       1
@<TRIPOS>SUBSTRUCTURE
     1 NHM504      1 GROUP             4 A     NHM     0 **** NHM A 504
