@<TRIPOS>MOLECULE
4nbu_CAA_3_ligand
   90    92     1     0     0
SMALL
NO_CHARGES


@<TRIPOS>ATOM
     1 N1A         58.7430    54.9840    84.8660 N.ar         1 CAA302   0.0000
     2 C2A         57.5410    54.5450    84.4000 C.ar         1 CAA302   0.0000
     3 N3A         56.4920    55.3640    84.2460 N.ar         1 CAA302   0.0000
     4 C4A         56.6080    56.6920    84.5610 C.ar         1 CAA302   0.0000
     5 C5A         57.8890    57.1840    85.0620 C.ar         1 CAA302   0.0000
     6 C6A         58.9230    56.2740    85.1910 C.ar         1 CAA302   0.0000
     7 N6A         60.1810    56.7250    85.6700 N.pl3        1 CAA302   0.0000
     8 N7A         57.6590    58.6110    85.2880 N.2          1 CAA302   0.0000
     9 C8A         56.3710    58.8460    84.9370 C.2          1 CAA302   0.0000
    10 N9A         55.9070    57.7390    84.5680 N.pl3        1 CAA302   0.0000
    11 C1B         54.5720    57.6740    84.1230 C.3          1 CAA302   0.0000
    12 C2B         53.6050    57.8740    85.2140 C.3          1 CAA302   0.0000
    13 O2B         53.2130    56.6020    85.7670 O.3          1 CAA302   0.0000
    14 C3B         52.4420    58.5300    84.5840 C.3          1 CAA302   0.0000
    15 O3B         51.5320    57.5070    84.1180 O.3          1 CAA302   0.0000
    16 P3B         49.9880    57.8510    83.8720 P.3          1 CAA302   0.0000
    17 O7A         49.8510    58.8690    82.7620 O.co2        1 CAA302   0.0000
    18 O8A         49.2520    56.5760    83.4730 O.co2        1 CAA302  -1.0000
    19 O9A         49.3800    58.4060    85.1460 O.co2        1 CAA302  -1.0000
    20 C4B         52.9520    59.2750    83.4260 C.3          1 CAA302   0.0000
    21 O4B         54.3420    58.7700    83.1350 O.3          1 CAA302   0.0000
    22 C5B         52.9680    60.7410    83.6800 C.3          1 CAA302   0.0000
    23 O5B         53.5910    61.0380    84.9400 O.3          1 CAA302   0.0000
    24 P1A         53.4560    62.5280    85.5530 P.3          1 CAA302   0.0000
    25 O1A         52.0050    62.8390    85.7910 O.co2        1 CAA302   0.0000
    26 O2A         54.2080    62.5970    86.8580 O.co2        1 CAA302  -1.0000
    27 O3A         54.0690    63.5860    84.5420 O.3          1 CAA302   0.0000
    28 P2A         54.7310    65.0080    84.9850 P.3          1 CAA302   0.0000
    29 O4A         53.8470    65.6880    86.0100 O.co2        1 CAA302   0.0000
    30 O5A         54.8720    65.8990    83.7660 O.co2        1 CAA302  -1.0000
    31 O6A         56.1450    64.7500    85.6060 O.3          1 CAA302   0.0000
    32 CBP         58.2620    63.6070    85.6840 C.3          1 CAA302   0.0000
    33 CCP         57.1110    64.0790    84.8150 C.3          1 CAA302   0.0000
    34 CDP         58.9820    64.8150    86.2730 C.3          1 CAA302   0.0000
    35 CEP         59.2070    62.8250    84.8240 C.3          1 CAA302   0.0000
    36 CAP         57.6950    62.7250    86.8260 C.3          1 CAA302   0.0000
    37 OAP         56.6240    62.0200    86.3530 O.3          1 CAA302   0.0000
    38 C9P         58.7240    61.6860    87.3440 C.2          1 CAA302   0.0000
    39 O9P         58.4030    60.5150    87.3460 O.2          1 CAA302   0.0000
    40 N8P         60.0400    62.0840    87.8360 N.am         1 CAA302   0.0000
    41 C7P         60.9620    61.0720    88.3030 C.3          1 CAA302   0.0000
    42 C6P         61.4060    60.2110    87.1100 C.3          1 CAA302   0.0000
    43 C5P         62.4410    59.1790    87.5590 C.2          1 CAA302   0.0000
    44 O5P         62.1490    58.0120    87.6020 O.2          1 CAA302   0.0000
    45 N4P         63.7690    59.6070    87.9260 N.am         1 CAA302   0.0000
    46 C3P         64.7680    58.6030    88.3570 C.3          1 CAA302   0.0000
    47 C2P         64.7960    58.4870    89.9060 C.3          1 CAA302   0.0000
    48 S1P         66.3970    58.9240    90.5750 S.3          1 CAA302   0.0000
    49 C1          67.6620    59.0190    89.3340 C.2          1 CAA302   0.0000
    50 O1          67.5890    59.7990    88.4100 O.2          1 CAA302   0.0000
    51 C2          68.9440    58.2870    89.5850 C.3          1 CAA302   0.0000
    52 C3          69.0540    57.2190    88.5360 C.2          1 CAA302   0.0000
    53 O3          70.1440    56.9590    88.0580 O.2          1 CAA302   0.0000
    54 C4          67.8380    56.4690    88.0790 C.3          1 CAA302   0.0000
    55 H2A         57.4379    53.5785    84.1648 H            1 CAA302   0.0000
    56 H6A1        60.3087    57.6872    85.9104 H            1 CAA302   0.0000
    57 H6A2        60.9394    56.0805    85.7670 H            1 CAA302   0.0000
    58 H8A         55.8890    59.7217    84.9660 H            1 CAA302   0.0000
    59 H1B         54.4069    56.7895    83.6868 H            1 CAA302   0.0000
    60 H2B         53.9950    58.4596    85.9246 H            1 CAA302   0.0000
    61 H7          52.4132    56.2572    85.2757 H            1 CAA302   0.0000
    62 H3B         51.9870    59.1436    85.2294 H            1 CAA302   0.0000
    63 H4B         52.3670    59.0886    82.6367 H            1 CAA302   0.0000
    64 H5B1        52.0277    61.0812    83.6918 H            1 CAA302   0.0000
    65 H5B2        53.4773    61.1942    82.9484 H            1 CAA302   0.0000
    66 HCP1        57.4589    64.7047    84.1169 H            1 CAA302   0.0000
    67 HCP2        56.6854    63.2895    84.3727 H            1 CAA302   0.0000
    68 HDP1        59.7406    64.5043    86.8457 H            1 CAA302   0.0000
    69 HDP2        59.3358    65.3861    85.5322 H            1 CAA302   0.0000
    70 HDP3        58.3419    65.3469    86.8274 H            1 CAA302   0.0000
    71 HEP1        59.9746    62.5040    85.3787 H            1 CAA302   0.0000
    72 HEP2        58.7282    62.0398    84.4312 H            1 CAA302   0.0000
    73 HEP3        59.5490    63.4092    84.0879 H            1 CAA302   0.0000
    74 HAP         57.4013    63.3087    87.5830 H            1 CAA302   0.0000
    75 H21         55.7876    62.5497    86.4940 H            1 CAA302   0.0000
    76 H8P         60.3019    63.0490    87.8500 H            1 CAA302   0.0000
    77 H7P1        60.5100    60.4949    88.9832 H            1 CAA302   0.0000
    78 H7P2        61.7604    61.5106    88.7155 H            1 CAA302   0.0000
    79 H6P1        61.8093    60.8000    86.4096 H            1 CAA302   0.0000
    80 H6P2        60.6111    59.7378    86.7303 H            1 CAA302   0.0000
    81 H4P         64.0132    60.5760    87.8895 H            1 CAA302   0.0000
    82 H3P1        65.6725    58.8793    88.0320 H            1 CAA302   0.0000
    83 H3P2        64.5302    57.7141    87.9654 H            1 CAA302   0.0000
    84 H2P1        64.5834    57.5446    90.1641 H            1 CAA302   0.0000
    85 H2P2        64.1062    59.1012    90.2893 H            1 CAA302   0.0000
    86 H32         68.9306    57.8737    90.4955 H            1 CAA302   0.0000
    87 H33         69.7178    58.9166    89.5162 H            1 CAA302   0.0000
    88 H34         68.1003    55.8018    87.3818 H            1 CAA302   0.0000
    89 H35         67.4274    55.9939    88.8572 H            1 CAA302   0.0000
    90 H36         67.1757    57.1113    87.6933 H            1 CAA302   0.0000
@<TRIPOS>BOND
     1    1    2      ar
     2    1    6      ar
     3    2    3      ar
     4    3    4      ar
     5    4    5      ar
     6    4   10       1
     7    5    6      ar
     8    5    8       1
     9    6    7       1
    10    8    9       2
    11    9   10       1
    12   10   11       1
    13   11   12       1
    14   11   21       1
    15   12   13       1
    16   12   14       1
    17   14   15       1
    18   14   20       1
    19   15   16       1
    20   16   17      ar
    21   16   18      ar
    22   16   19      ar
    23   20   21       1
    24   20   22       1
    25   22   23       1
    26   23   24       1
    27   24   25      ar
    28   24   26      ar
    29   24   27       1
    30   27   28       1
    31   28   29      ar
    32   28   30      ar
    33   28   31       1
    34   31   33       1
    35   32   33       1
    36   32   34       1
    37   32   35       1
    38   32   36       1
    39   36   37       1
    40   36   38       1
    41   38   39       2
    42   38   40      am
    43   40   41       1
    44   41   42       1
    45   42   43       1
    46   43   44       2
    47   43   45      am
    48   45   46       1
    49   46   47       1
    50   47   48       1
    51   48   49       1
    52   49   50       2
    53   49   51       1
    54   51   52       1
    55   52   53       2
    56   52   54       1
    57    2   55       1
    58    7   56       1
    59    7   57       1
    60    9   58       1
    61   11   59       1
    62   12   60       1
    63   13   61       1
    64   14   62       1
    65   54   90       1
    66   54   89       1
    67   20   63       1
    68   22   64       1
    69   22   65       1
    70   54   88       1
    71   51   87       1
    72   33   66       1
    73   33   67       1
    74   34   68       1
    75   34   69       1
    76   34   70       1
    77   35   71       1
    78   35   72       1
    79   35   73       1
    80   36   74       1
    81   37   75       1
    82   40   76       1
    83   41   77       1
    84   41   78       1
    85   42   79       1
    86   42   80       1
    87   45   81       1
    88   46   82       1
    89   46   83       1
    90   47   84       1
    91   47   85       1
    92   51   86       1
@<TRIPOS>SUBSTRUCTURE
     1 CAA302      1 GROUP             4 B     CAA     0 **** CAA B 302
