@<TRIPOS>MOLECULE
3ozw_KKK_1_ligand
   64    68     1     0     0
SMALL
NO_CHARGES


@<TRIPOS>ATOM
     1 C1         -20.1940    38.6430   -33.7350 C.2          1 KKK413   0.0000
     2 N1         -20.6990    37.7430   -34.5870 N.pl3        1 KKK413   0.0000
     3 O1         -20.4840    35.8460   -32.4840 O.3          1 KKK413   0.0000
     4 CL1        -26.7160    36.4160   -34.1350 Cl           1 KKK413   0.0000
     5 C2         -22.0470    39.4420   -34.4710 C.2          1 KKK413   0.0000
     6 N2         -21.0060    39.7020   -33.6690 N.2          1 KKK413   0.0000
     7 O2         -20.2820    34.0960   -33.8500 O.3          1 KKK413   0.0000
     8 CL2        -22.3060    34.3680   -36.4550 Cl           1 KKK413   0.0000
     9 C3         -21.8530    38.2230   -35.0370 C.2          1 KKK413   0.0000
    10 N3         -13.0910    34.9270   -30.1080 N.pl3        1 KKK413   0.0000
    11 O3         -18.4520    34.8870   -31.4510 O.3          1 KKK413   0.0000
    12 C4         -20.1490    36.3760   -34.8410 C.3          1 KKK413   0.0000
    13 N4         -10.6790    33.4750   -29.9560 N.am         1 KKK413   0.0000
    14 O4          -8.6710    32.9420   -30.8460 O.2          1 KKK413   0.0000
    15 C5         -20.7960    35.4020   -33.8080 C.3          1 KKK413   0.0000
    16 C6         -20.6930    34.7600   -31.6160 C.3          1 KKK413   0.0000
    17 C7         -20.5410    33.5610   -32.5480 C.3          1 KKK413   0.0000
    18 C8         -22.2840    35.5470   -33.9270 C.ar         1 KKK413   0.0000
    19 C9         -23.0130    35.2010   -35.0540 C.ar         1 KKK413   0.0000
    20 C10        -24.3690    35.4050   -35.1060 C.ar         1 KKK413   0.0000
    21 C11        -24.9790    36.0330   -34.0480 C.ar         1 KKK413   0.0000
    22 C12        -24.2660    36.4160   -32.9160 C.ar         1 KKK413   0.0000
    23 C13        -22.9230    36.1710   -32.8530 C.ar         1 KKK413   0.0000
    24 C14        -19.5720    34.8270   -30.6090 C.3          1 KKK413   0.0000
    25 C15        -17.1600    34.8590   -31.0190 C.ar         1 KKK413   0.0000
    26 C16        -16.7570    34.1970   -29.8710 C.ar         1 KKK413   0.0000
    27 C17        -15.3940    34.2110   -29.5390 C.ar         1 KKK413   0.0000
    28 C18        -14.4690    34.8750   -30.3610 C.ar         1 KKK413   0.0000
    29 C19        -14.8890    35.5170   -31.5170 C.ar         1 KKK413   0.0000
    30 C20        -16.2350    35.5060   -31.8330 C.ar         1 KKK413   0.0000
    31 C21        -12.7420    34.2190   -28.8570 C.3          1 KKK413   0.0000
    32 C22        -11.2240    34.1240   -28.7390 C.3          1 KKK413   0.0000
    33 C23        -10.9310    34.2820   -31.1620 C.3          1 KKK413   0.0000
    34 C24        -12.4370    34.3720   -31.3220 C.3          1 KKK413   0.0000
    35 C25         -9.2860    33.2540   -29.8290 C.2          1 KKK413   0.0000
    36 C26         -8.6440    33.4040   -28.4680 C.3          1 KKK413   0.0000
    37 H1         -19.3397    38.5389   -33.2257 H            1 KKK413   0.0000
    38 H2         -22.8317    40.0421   -34.6261 H            1 KKK413   0.0000
    39 H3         -22.4697    37.7673   -35.6789 H            1 KKK413   0.0000
    40 H4         -19.1556    36.3824   -34.7266 H            1 KKK413   0.0000
    41 H5         -20.3756    36.0855   -35.7706 H            1 KKK413   0.0000
    42 H6         -21.5935    34.7902   -31.1822 H            1 KKK413   0.0000
    43 H7         -19.7782    32.9863   -32.2516 H            1 KKK413   0.0000
    44 H8         -21.3821    33.0202   -32.5567 H            1 KKK413   0.0000
    45 H9         -24.9012    35.1030   -35.8969 H            1 KKK413   0.0000
    46 H10        -24.7325    36.8668   -32.1549 H            1 KKK413   0.0000
    47 H11        -22.4008    36.4369   -32.0427 H            1 KKK413   0.0000
    48 H12        -19.6432    35.6429   -30.0353 H            1 KKK413   0.0000
    49 H13        -19.5512    34.0125   -30.0291 H            1 KKK413   0.0000
    50 H14        -17.4206    33.7213   -29.2936 H            1 KKK413   0.0000
    51 H15        -15.0792    33.7453   -28.7119 H            1 KKK413   0.0000
    52 H16        -14.2303    35.9792   -32.1107 H            1 KKK413   0.0000
    53 H17        -16.5493    35.9709   -32.6607 H            1 KKK413   0.0000
    54 H18        -13.1341    33.2992   -28.8730 H            1 KKK413   0.0000
    55 H19        -13.1071    34.7234   -28.0745 H            1 KKK413   0.0000
    56 H20        -10.8377    35.0419   -28.6481 H            1 KKK413   0.0000
    57 H21        -10.9846    33.5804   -27.9345 H            1 KKK413   0.0000
    58 H22        -10.5255    33.8407   -31.9625 H            1 KKK413   0.0000
    59 H23        -10.5412    35.1963   -31.0521 H            1 KKK413   0.0000
    60 H24        -12.6446    34.9643   -32.1005 H            1 KKK413   0.0000
    61 H25        -12.7992    33.4559   -31.4942 H            1 KKK413   0.0000
    62 H26         -7.6641    33.2175   -28.5393 H            1 KKK413   0.0000
    63 H27         -8.7824    34.3368   -28.1351 H            1 KKK413   0.0000
    64 H28         -9.0609    32.7569   -27.8296 H            1 KKK413   0.0000
@<TRIPOS>BOND
     1    1    2       1
     2    1    6       2
     3    2    9       1
     4    2   12       1
     5    3   15       1
     6    3   16       1
     7    4   21       1
     8    5    6       1
     9    5    9       2
    10    7   15       1
    11    7   17       1
    12    8   19       1
    13   10   28       1
    14   10   31       1
    15   10   34       1
    16   11   24       1
    17   11   25       1
    18   12   15       1
    19   13   32       1
    20   13   33       1
    21   13   35      am
    22   14   35       2
    23   15   18       1
    24   16   17       1
    25   16   24       1
    26   18   19      ar
    27   18   23      ar
    28   19   20      ar
    29   20   21      ar
    30   21   22      ar
    31   22   23      ar
    32   25   26      ar
    33   25   30      ar
    34   26   27      ar
    35   27   28      ar
    36   28   29      ar
    37   29   30      ar
    38   31   32       1
    39   33   34       1
    40   35   36       1
    41    1   37       1
    42    5   38       1
    43    9   39       1
    44   12   40       1
    45   12   41       1
    46   16   42       1
    47   17   43       1
    48   17   44       1
    49   20   45       1
    50   22   46       1
    51   23   47       1
    52   24   48       1
    53   24   49       1
    54   26   50       1
    55   27   51       1
    56   29   52       1
    57   30   53       1
    58   31   54       1
    59   31   55       1
    60   32   56       1
    61   32   57       1
    62   33   58       1
    63   33   59       1
    64   34   60       1
    65   34   61       1
    66   36   62       1
    67   36   63       1
    68   36   64       1
@<TRIPOS>SUBSTRUCTURE
     1 KKK413      1 GROUP             4 A     KKK     0 **** KKK A 413
