@<TRIPOS>MOLECULE
3flk_NAI_1_ligand
   71    75     1     0     0
SMALL
NO_CHARGES


@<TRIPOS>ATOM
     1 PA          38.2320    80.8910   127.8020 P.3          1 NAI402   0.0000
     2 O1A         38.4390    82.3070   128.1840 O.co2        1 NAI402   0.0000
     3 O2A         37.2850    80.2050   128.7000 O.co2        1 NAI402  -1.0000
     4 O5B         39.6380    80.1270   127.8420 O.3          1 NAI402   0.0000
     5 C5B         40.6920    80.4200   126.9530 C.3          1 NAI402   0.0000
     6 C4B         42.0220    79.9740   127.5510 C.3          1 NAI402   0.0000
     7 O4B         42.3930    80.8500   128.5990 O.3          1 NAI402   0.0000
     8 C3B         41.9470    78.5720   128.1390 C.3          1 NAI402   0.0000
     9 O3B         43.1400    77.8940   127.8260 O.3          1 NAI402   0.0000
    10 C2B         41.8340    78.8090   129.6320 C.3          1 NAI402   0.0000
    11 O2B         42.4460    77.7870   130.3850 O.3          1 NAI402   0.0000
    12 C1B         42.5110    80.1550   129.8300 C.3          1 NAI402   0.0000
    13 N9A         41.8760    80.9180   130.9180 N.pl3        1 NAI402   0.0000
    14 C8A         40.6690    81.5690   130.8770 C.2          1 NAI402   0.0000
    15 N7A         40.4580    82.1440   132.0810 N.2          1 NAI402   0.0000
    16 C5A         41.5030    81.8740   132.8860 C.ar         1 NAI402   0.0000
    17 C6A         41.7890    82.2170   134.2040 C.ar         1 NAI402   0.0000
    18 N6A         40.9420    82.9660   134.9050 N.pl3        1 NAI402   0.0000
    19 N1A         42.9690    81.7810   134.7730 N.ar         1 NAI402   0.0000
    20 C2A         43.8560    81.0130   134.0490 C.ar         1 NAI402   0.0000
    21 N3A         43.5620    80.6840   132.7390 N.ar         1 NAI402   0.0000
    22 C4A         42.4050    81.1010   132.1690 C.ar         1 NAI402   0.0000
    23 O3          37.7410    80.8930   126.2590 O.3          1 NAI402   0.0000
    24 PN          37.4750    79.6280   125.2930 P.3          1 NAI402   0.0000
    25 O1N         38.3180    78.4760   125.6780 O.co2        1 NAI402   0.0000
    26 O2N         37.6010    80.1430   123.9100 O.co2        1 NAI402  -1.0000
    27 O5D         35.9330    79.2820   125.5550 O.3          1 NAI402   0.0000
    28 C5D         35.5210    78.3940   126.5740 C.3          1 NAI402   0.0000
    29 C4D         34.0210    78.5460   126.8240 C.3          1 NAI402   0.0000
    30 O4D         33.7570    79.7940   127.4370 O.3          1 NAI402   0.0000
    31 C3D         33.1840    78.5100   125.5520 C.3          1 NAI402   0.0000
    32 O3D         32.0080    77.7950   125.8430 O.3          1 NAI402   0.0000
    33 C2D         32.8490    79.9660   125.2810 C.3          1 NAI402   0.0000
    34 O2D         31.6250    80.1190   124.6020 O.3          1 NAI402   0.0000
    35 C1D         32.7920    80.5250   126.6950 C.3          1 NAI402   0.0000
    36 N1N         33.0590    81.9710   126.8250 N.pl3        1 NAI402   0.0000
    37 C2N         32.1770    82.7040   127.5690 C.2          1 NAI402   0.0000
    38 C3N         32.3720    84.0670   127.7600 C.2          1 NAI402   0.0000
    39 C7N         31.5490    84.7830   128.7930 C.2          1 NAI402   0.0000
    40 O7N         30.6640    84.0480   129.6100 O.2          1 NAI402   0.0000
    41 N7N         31.6670    86.1040   128.9190 N.am         1 NAI402   0.0000
    42 C4N         33.4850    84.6800   127.1840 C.3          1 NAI402   0.0000
    43 C5N         34.3850    83.9270   126.4300 C.2          1 NAI402   0.0000
    44 C6N         34.1630    82.5610   126.2570 C.2          1 NAI402   0.0000
    45 H5B1        40.7188    81.4055   126.7852 H            1 NAI402   0.0000
    46 H5B2        40.5398    79.9389   126.0896 H            1 NAI402   0.0000
    47 H4B         42.7254    79.9952   126.8405 H            1 NAI402   0.0000
    48 H3B         41.1501    78.0779   127.7915 H            1 NAI402   0.0000
    49 H5          43.8897    78.5523   127.7587 H            1 NAI402   0.0000
    50 H2B         40.8696    78.8796   129.8868 H            1 NAI402   0.0000
    51 H7          41.9724    77.6886   131.2602 H            1 NAI402   0.0000
    52 H1B         43.4780    80.0139   130.0419 H            1 NAI402   0.0000
    53 H8A         40.0518    81.6107   130.0913 H            1 NAI402   0.0000
    54 H6A1        41.1545    83.2084   135.8516 H            1 NAI402   0.0000
    55 H6A2        40.0929    83.2867   134.4853 H            1 NAI402   0.0000
    56 H2A         44.7065    80.6960   134.4688 H            1 NAI402   0.0000
    57 H5D1        36.0198    78.6012   127.4156 H            1 NAI402   0.0000
    58 H5D2        35.7165    77.4543   126.2935 H            1 NAI402   0.0000
    59 H4D         33.7173    77.8138   127.4336 H            1 NAI402   0.0000
    60 H3D         33.6866    78.0994   124.7912 H            1 NAI402   0.0000
    61 H17         31.6849    77.3342   125.0164 H            1 NAI402   0.0000
    62 H2D         33.5875    80.4012   124.7660 H            1 NAI402   0.0000
    63 H19         31.4627    79.3198   124.0232 H            1 NAI402   0.0000
    64 H1D         31.8873    80.3338   127.0757 H            1 NAI402   0.0000
    65 H2N         31.3835    82.2551   127.9800 H            1 NAI402   0.0000
    66 H7N1        31.1244    86.5915   129.6030 H            1 NAI402   0.0000
    67 H7N2        32.2982    86.6081   128.3295 H            1 NAI402   0.0000
    68 H4N1        34.0074    85.0903   127.9315 H            1 NAI402   0.0000
    69 H4N2        33.1388    85.4013   126.5841 H            1 NAI402   0.0000
    70 H5N         35.1839    84.3636   126.0163 H            1 NAI402   0.0000
    71 H6N         34.8050    82.0124   125.7214 H            1 NAI402   0.0000
@<TRIPOS>BOND
     1    1    2      ar
     2    1    3      ar
     3    1    4       1
     4    1   23       1
     5    4    5       1
     6    5    6       1
     7    6    7       1
     8    6    8       1
     9    7   12       1
    10    8    9       1
    11    8   10       1
    12   10   11       1
    13   10   12       1
    14   12   13       1
    15   13   14       1
    16   13   22       1
    17   14   15       2
    18   15   16       1
    19   16   17      ar
    20   16   22      ar
    21   17   18       1
    22   17   19      ar
    23   19   20      ar
    24   20   21      ar
    25   21   22      ar
    26   23   24       1
    27   24   25      ar
    28   24   26      ar
    29   24   27       1
    30   27   28       1
    31   28   29       1
    32   29   30       1
    33   29   31       1
    34   30   35       1
    35   31   32       1
    36   31   33       1
    37   33   34       1
    38   33   35       1
    39   35   36       1
    40   36   37       1
    41   36   44       1
    42   37   38       2
    43   38   39       1
    44   38   42       1
    45   39   40       2
    46   39   41      am
    47   42   43       1
    48   43   44       2
    49   44   71       1
    50    5   45       1
    51    5   46       1
    52    6   47       1
    53    8   48       1
    54    9   49       1
    55   10   50       1
    56   11   51       1
    57   12   52       1
    58   14   53       1
    59   18   54       1
    60   18   55       1
    61   20   56       1
    62   43   70       1
    63   28   57       1
    64   28   58       1
    65   29   59       1
    66   31   60       1
    67   32   61       1
    68   33   62       1
    69   34   63       1
    70   35   64       1
    71   37   65       1
    72   41   66       1
    73   41   67       1
    74   42   68       1
    75   42   69       1
@<TRIPOS>SUBSTRUCTURE
     1 NAI402      1 GROUP             4 A     NAI     0 **** NAI A 402
