@<TRIPOS>MOLECULE
2y5s_78H_1_ligand
   36    38     1     0     0
SMALL
NO_CHARGES


@<TRIPOS>ATOM
     1 O4          50.1290   -12.6870    -1.6060 O.2          1 78H1293   0.0000
     2 C4          51.3380   -12.6090    -1.8280 C.2          1 78H1293   0.0000
     3 C5          51.8690   -13.0190    -3.0550 C.2          1 78H1293   0.0000
     4 N3          52.2110   -12.1050    -0.8380 N.pl3        1 78H1293   0.0000
     5 C9          53.2480   -12.9180    -3.2440 C.2          1 78H1293   0.0000
     6 N5          51.0670   -13.4750    -4.0480 N.2          1 78H1293   0.0000
     7 C2          53.6000   -12.0550    -1.0950 C.2          1 78H1293   0.0000
     8 N8          53.8120   -13.3100    -4.4520 N.pl3        1 78H1293   0.0000
     9 N1          54.0640   -12.4430    -2.2910 N.2          1 78H1293   0.0000
    10 C6          51.5740   -14.0190    -5.1650 C.2          1 78H1293   0.0000
    11 N2          54.4600   -11.6210    -0.1640 N.pl3        1 78H1293   0.0000
    12 C7          53.0880   -14.2040    -5.3690 C.3          1 78H1293   0.0000
    13 C10         50.6300   -14.4570    -6.2690 C.3          1 78H1293   0.0000
    14 N11         50.1890   -15.8270    -6.0410 N.pl3        1 78H1293   0.0000
    15 C15         48.8970   -16.1370    -6.0570 C.ar         1 78H1293   0.0000
    16 C16         48.1170   -15.6970    -7.1230 C.ar         1 78H1293   0.0000
    17 C17         48.3470   -16.8880    -5.0140 C.ar         1 78H1293   0.0000
    18 C18         46.7680   -16.0260    -7.1480 C.ar         1 78H1293   0.0000
    19 C19         47.0060   -17.2040    -5.0360 C.ar         1 78H1293   0.0000
    20 C20         46.2160   -16.7710    -6.1060 C.ar         1 78H1293   0.0000
    21 C21         44.7170   -17.1130    -6.1240 C.2          1 78H1293   0.0000
    22 O22         44.2230   -17.5360    -5.0730 O.co2        1 78H1293   0.0000
    23 O23         44.0630   -16.8780    -7.1530 O.co2        1 78H1293  -1.0000
    24 H1          54.7224   -12.9799    -4.7014 H            1 78H1293   0.0000
    25 H2          55.4396   -11.5922    -0.3628 H            1 78H1293   0.0000
    26 H3          54.1223   -11.3258     0.7298 H            1 78H1293   0.0000
    27 H4          53.3378   -15.1532    -5.1776 H            1 78H1293   0.0000
    28 H5          53.3281   -13.9801    -6.3136 H            1 78H1293   0.0000
    29 H6          51.1033   -14.4045    -7.1483 H            1 78H1293   0.0000
    30 H7          49.8340   -13.8518    -6.2823 H            1 78H1293   0.0000
    31 H8          50.8667   -16.5423    -5.8705 H            1 78H1293   0.0000
    32 H9          48.5214   -15.1532    -7.8584 H            1 78H1293   0.0000
    33 H10         48.9234   -17.1941    -4.2564 H            1 78H1293   0.0000
    34 H11         46.1938   -15.7295    -7.9112 H            1 78H1293   0.0000
    35 H12         46.6012   -17.7381    -4.2937 H            1 78H1293   0.0000
    36 H13         51.8489   -11.7861     0.0379 H            1 78H1293   0.0000
@<TRIPOS>BOND
     1    1    2       2
     2    2    3       1
     3    2    4       1
     4    3    5       2
     5    3    6       1
     6    4    7       1
     7    5    8       1
     8    5    9       1
     9    6   10       2
    10    7    9       2
    11    7   11       1
    12    8   12       1
    13   10   12       1
    14   10   13       1
    15   13   14       1
    16   14   15       1
    17   15   16      ar
    18   15   17      ar
    19   16   18      ar
    20   17   19      ar
    21   18   20      ar
    22   19   20      ar
    23   20   21       1
    24   21   22      ar
    25   21   23      ar
    26    8   24       1
    27    4   36       1
    28   11   25       1
    29   11   26       1
    30   12   27       1
    31   12   28       1
    32   13   29       1
    33   13   30       1
    34   14   31       1
    35   16   32       1
    36   17   33       1
    37   18   34       1
    38   19   35       1
@<TRIPOS>SUBSTRUCTURE
     1 78H1293     1 GROUP             4 A     78H     0 **** 78H A1293
