@<TRIPOS>MOLECULE
2cje_DUN_1_ligand
   36    37     1     0     0
SMALL
NO_CHARGES


@<TRIPOS>ATOM
     1 N1          -9.7750    30.5620    -2.4230 N.pl3        1 DUN1266   0.0000
     2 C2          -8.7020    30.3370    -1.5060 C.2          1 DUN1266   0.0000
     3 N3          -7.5990    29.7320    -1.9440 N.pl3        1 DUN1266   0.0000
     4 C4          -7.4970    29.3000    -3.2270 C.2          1 DUN1266   0.0000
     5 C5          -8.5430    29.4740    -4.1290 C.2          1 DUN1266   0.0000
     6 C6          -9.6900    30.1190    -3.6990 C.2          1 DUN1266   0.0000
     7 O2          -8.7710    30.7070    -0.3110 O.2          1 DUN1266   0.0000
     8 O4          -6.4720    28.7080    -3.6260 O.2          1 DUN1266   0.0000
     9 C1'        -11.0150    31.2080    -1.9540 C.3          1 DUN1266   0.0000
    10 C2'        -10.8480    32.5570    -1.3100 C.3          1 DUN1266   0.0000
    11 C3'        -12.1750    33.2490    -1.5410 C.3          1 DUN1266   0.0000
    12 C4'        -12.9290    32.3470    -2.4780 C.3          1 DUN1266   0.0000
    13 O4'        -12.0100    31.3820    -2.9610 O.3          1 DUN1266   0.0000
    14 O3'        -12.8580    33.4910    -0.3180 O.3          1 DUN1266   0.0000
    15 C5'        -13.4400    33.0320    -3.7130 C.3          1 DUN1266   0.0000
    16 O5'        -14.1600    32.0270    -4.4550 O.3          1 DUN1266   0.0000
    17 PA         -14.9680    32.4130    -5.7880 P.3          1 DUN1266   0.0000
    18 O1A        -14.3010    33.6740    -6.3870 O.co2        1 DUN1266   0.0000
    19 O2A        -14.9990    31.2440    -6.7190 O.co2        1 DUN1266  -1.0000
    20 PB         -16.9620    34.1560    -4.3480 P.3          1 DUN1266   0.0000
    21 O1B        -18.4460    34.3940    -4.6130 O.co2        1 DUN1266   0.0000
    22 O2B        -16.1380    35.3890    -4.7770 O.co2        1 DUN1266  -1.0000
    23 O3B        -16.6730    33.7120    -2.9360 O.co2        1 DUN1266  -1.0000
    24 N3A        -16.5750    32.8340    -5.3110 N.3          1 DUN1266   0.0000
    25 H1          -6.8326    29.5936    -1.3167 H            1 DUN1266   0.0000
    26 H2          -8.4674    29.1399    -5.0685 H            1 DUN1266   0.0000
    27 H3         -10.4537    30.2572    -4.3296 H            1 DUN1266   0.0000
    28 H1'        -11.4094    30.6048    -1.2607 H            1 DUN1266   0.0000
    29 H2'1       -10.1033    33.0659    -1.7418 H            1 DUN1266   0.0000
    30 H2'2       -10.6636    32.4621    -0.3317 H            1 DUN1266   0.0000
    31 H3'        -12.0089    34.1232    -1.9972 H            1 DUN1266   0.0000
    32 H4'        -13.6808    31.8976    -1.9955 H            1 DUN1266   0.0000
    33 H9         -13.4200    34.3133    -0.4071 H            1 DUN1266   0.0000
    34 H5'1       -12.6776    33.3849    -4.2554 H            1 DUN1266   0.0000
    35 H5'2       -14.0498    33.7850    -3.4657 H            1 DUN1266   0.0000
    36 H3A        -16.9308    32.0345    -4.8270 H            1 DUN1266   0.0000
@<TRIPOS>BOND
     1    1    2       1
     2    1    6       1
     3    1    9       1
     4    2    3       1
     5    2    7       2
     6    3    4       1
     7    4    5       1
     8    4    8       2
     9    5    6       2
    10    9   10       1
    11    9   13       1
    12   10   11       1
    13   11   12       1
    14   11   14       1
    15   12   13       1
    16   12   15       1
    17   15   16       1
    18   16   17       1
    19   17   18      ar
    20   17   19      ar
    21   17   24       1
    22   20   21      ar
    23   20   22      ar
    24   20   23      ar
    25   20   24       1
    26    3   25       1
    27    5   26       1
    28    6   27       1
    29    9   28       1
    30   10   29       1
    31   10   30       1
    32   11   31       1
    33   12   32       1
    34   14   33       1
    35   15   34       1
    36   15   35       1
    37   24   36       1
@<TRIPOS>SUBSTRUCTURE
     1 DUN1266     1 GROUP             4 A     DUN     0 **** DUN A1266
