@<TRIPOS>MOLECULE
3hdh_NAD_2_ligand
   70    74     1     0     0
SMALL
NO_CHARGES


@<TRIPOS>ATOM
     1 PA          19.6510   -31.6680    48.2600 P.3          1 NAD750   0.0000
     2 O1A         19.1350   -33.0310    48.3740 O.co2        1 NAD750   0.0000
     3 O2A         20.9210   -31.2390    48.9960 O.co2        1 NAD750  -1.0000
     4 O5B         18.5800   -30.5660    48.7540 O.3          1 NAD750   0.0000
     5 C5B         17.1320   -30.7200    48.5250 C.3          1 NAD750   0.0000
     6 C4B         16.4730   -30.5390    49.8800 C.3          1 NAD750   0.0000
     7 O4B         15.0130   -30.7100    49.5940 O.3          1 NAD750   0.0000
     8 C3B         16.7700   -31.6620    50.9460 C.3          1 NAD750   0.0000
     9 O3B         17.2950   -30.9840    52.1950 O.3          1 NAD750   0.0000
    10 C2B         15.5120   -32.4140    51.2360 C.3          1 NAD750   0.0000
    11 O2B         15.2740   -32.8790    52.4810 O.3          1 NAD750   0.0000
    12 C1B         14.4470   -31.3880    50.6870 C.3          1 NAD750   0.0000
    13 N9A         13.2360   -32.0360    50.1800 N.pl3        1 NAD750   0.0000
    14 C8A         12.9270   -33.1890    49.5040 C.2          1 NAD750   0.0000
    15 N7A         11.6430   -33.3940    49.2260 N.2          1 NAD750   0.0000
    16 C5A         11.0020   -32.3300    49.7210 C.ar         1 NAD750   0.0000
    17 C6A          9.5470   -31.9610    49.7230 C.ar         1 NAD750   0.0000
    18 N6A          8.6070   -32.7020    49.2050 N.pl3        1 NAD750   0.0000
    19 N1A          9.3300   -30.7710    50.3470 N.ar         1 NAD750   0.0000
    20 C2A         10.1970   -29.9210    50.9210 C.ar         1 NAD750   0.0000
    21 N3A         11.5930   -30.2180    50.9450 N.ar         1 NAD750   0.0000
    22 C4A         11.9350   -31.4430    50.3260 C.ar         1 NAD750   0.0000
    23 O3          19.8730   -31.2940    46.7820 O.3          1 NAD750   0.0000
    24 PN          20.4410   -30.1970    45.8380 P.3          1 NAD750   0.0000
    25 O1N         21.7910   -30.5860    45.3700 O.co2        1 NAD750   0.0000
    26 O2N         20.3560   -28.8690    46.5690 O.co2        1 NAD750  -1.0000
    27 O5D         19.5660   -30.1810    44.4640 O.3          1 NAD750   0.0000
    28 C5D         18.1380   -29.8140    44.6740 C.3          1 NAD750   0.0000
    29 C4D         17.6370   -29.1710    43.4140 C.3          1 NAD750   0.0000
    30 O4D         18.6570   -28.2050    42.8910 O.3          1 NAD750   0.0000
    31 C3D         17.3850   -30.1030    42.1860 C.3          1 NAD750   0.0000
    32 O3D         16.1400   -29.7180    41.5490 O.3          1 NAD750   0.0000
    33 C2D         18.5860   -29.9470    41.2200 C.3          1 NAD750   0.0000
    34 O2D         18.3380   -30.1990    39.8560 O.3          1 NAD750   0.0000
    35 C1D         19.0280   -28.4710    41.4800 C.3          1 NAD750   0.0000
    36 N1N         20.4950   -28.0860    41.3310 N.ar         1 NAD750   1.0000
    37 C2N         21.5470   -28.8280    41.8780 C.ar         1 NAD750   0.0000
    38 C3N         22.8250   -28.3790    41.6780 C.ar         1 NAD750   0.0000
    39 C7N         24.0080   -29.1460    42.2530 C.2          1 NAD750   0.0000
    40 O7N         25.0700   -29.3750    41.6900 O.2          1 NAD750   0.0000
    41 N7N         23.7650   -29.5950    43.5810 N.am         1 NAD750   0.0000
    42 C4N         23.1500   -27.1570    40.9160 C.ar         1 NAD750   0.0000
    43 C5N         22.0120   -26.4910    40.4090 C.ar         1 NAD750   0.0000
    44 C6N         20.7380   -26.8810    40.5740 C.ar         1 NAD750   0.0000
    45 H5B1        16.9326   -31.6295    48.1603 H            1 NAD750   0.0000
    46 H5B2        16.8057   -30.0251    47.8842 H            1 NAD750   0.0000
    47 H4B         16.6620   -29.6306    50.2530 H            1 NAD750   0.0000
    48 H3B         17.4616   -32.2897    50.5887 H            1 NAD750   0.0000
    49 H5          16.6068   -30.3474    52.5430 H            1 NAD750   0.0000
    50 H2B         15.4976   -33.2039    50.6230 H            1 NAD750   0.0000
    51 H7          14.7825   -32.1854    53.0076 H            1 NAD750   0.0000
    52 H1B         14.2063   -30.7336    51.4038 H            1 NAD750   0.0000
    53 H8A         13.6330   -33.8435    49.2335 H            1 NAD750   0.0000
    54 H6A1         7.6549   -32.3982    49.2393 H            1 NAD750   0.0000
    55 H6A2         8.8384   -33.5739    48.7735 H            1 NAD750   0.0000
    56 H2A          9.8623   -29.0742    51.3344 H            1 NAD750   0.0000
    57 H5D1        18.0608   -29.1721    45.4369 H            1 NAD750   0.0000
    58 H5D2        17.6021   -30.6344    44.8731 H            1 NAD750   0.0000
    59 H4D         16.7949   -28.6720    43.6189 H            1 NAD750   0.0000
    60 H3D         17.3240   -31.0526    42.4935 H            1 NAD750   0.0000
    61 H17         15.9715   -30.3105    40.7613 H            1 NAD750   0.0000
    62 H2D         19.3187   -30.5550    41.5257 H            1 NAD750   0.0000
    63 H19         19.1703   -30.5470    39.4246 H            1 NAD750   0.0000
    64 H1D         18.4840   -27.8714    40.8930 H            1 NAD750   0.0000
    65 H2N         21.3708   -29.6625    42.4002 H            1 NAD750   0.0000
    66 H7N1        24.4672   -30.1123    44.0703 H            1 NAD750   0.0000
    67 H7N2        22.8920   -29.3933    44.0251 H            1 NAD750   0.0000
    68 H4N         24.0849   -26.8323    40.7727 H            1 NAD750   0.0000
    69 H5N         22.1691   -25.6563    39.8812 H            1 NAD750   0.0000
    70 H6N         19.9822   -26.3541    40.1853 H            1 NAD750   0.0000
@<TRIPOS>BOND
     1    1    2      ar
     2    1    3      ar
     3    1    4       1
     4    1   23       1
     5    4    5       1
     6    5    6       1
     7    6    7       1
     8    6    8       1
     9    7   12       1
    10    8    9       1
    11    8   10       1
    12   10   11       1
    13   10   12       1
    14   12   13       1
    15   13   14       1
    16   13   22       1
    17   14   15       2
    18   15   16       1
    19   16   17      ar
    20   16   22      ar
    21   17   18       1
    22   17   19      ar
    23   19   20      ar
    24   20   21      ar
    25   21   22      ar
    26   23   24       1
    27   24   25      ar
    28   24   26      ar
    29   24   27       1
    30   27   28       1
    31   28   29       1
    32   29   30       1
    33   29   31       1
    34   30   35       1
    35   31   32       1
    36   31   33       1
    37   33   34       1
    38   33   35       1
    39   35   36       1
    40   36   37      ar
    41   36   44      ar
    42   37   38      ar
    43   38   39       1
    44   38   42      ar
    45   39   40       2
    46   39   41      am
    47   42   43      ar
    48   43   44      ar
    49   44   70       1
    50    5   45       1
    51    5   46       1
    52    6   47       1
    53    8   48       1
    54    9   49       1
    55   10   50       1
    56   11   51       1
    57   12   52       1
    58   14   53       1
    59   18   54       1
    60   18   55       1
    61   20   56       1
    62   43   69       1
    63   28   57       1
    64   28   58       1
    65   29   59       1
    66   31   60       1
    67   32   61       1
    68   33   62       1
    69   34   63       1
    70   35   64       1
    71   37   65       1
    72   41   66       1
    73   41   67       1
    74   42   68       1
@<TRIPOS>SUBSTRUCTURE
     1 NAD750      1 GROUP             4 B     NAD     0 **** NAD B 750
