@<TRIPOS>MOLECULE
2ix5_CAA_5_ligand
   80    82     1     0     0
SMALL
NO_CHARGES


@<TRIPOS>ATOM
     1 N1A         56.8800   -18.2210    23.9270 N.ar         1 CAA1432   0.0000
     2 C2A         56.1850   -17.9590    25.0330 C.ar         1 CAA1432   0.0000
     3 N3A         55.6090   -16.7750    25.2250 N.ar         1 CAA1432   0.0000
     4 C4A         55.7160   -15.8020    24.2990 C.ar         1 CAA1432   0.0000
     5 C5A         56.4310   -16.0430    23.1320 C.ar         1 CAA1432   0.0000
     6 C6A         57.0220   -17.2900    22.9600 C.ar         1 CAA1432   0.0000
     7 N6A         57.7150   -17.5550    21.8580 N.pl3        1 CAA1432   0.0000
     8 N7A         56.3810   -14.9420    22.3900 N.2          1 CAA1432   0.0000
     9 C8A         55.6640   -14.0380    23.0580 C.2          1 CAA1432   0.0000
    10 N9A         55.2550   -14.5570    24.2200 N.pl3        1 CAA1432   0.0000
    11 C1B         54.4290   -13.8440    25.2340 C.3          1 CAA1432   0.0000
    12 C2B         52.9610   -14.2640    25.2110 C.3          1 CAA1432   0.0000
    13 O2B         52.3100   -13.7750    24.0340 O.3          1 CAA1432   0.0000
    14 C3B         52.4580   -13.5450    26.4570 C.3          1 CAA1432   0.0000
    15 O3B         52.1950   -12.1810    26.1130 O.3          1 CAA1432   0.0000
    16 P3B         51.3910   -11.1390    27.0540 P.3          1 CAA1432   0.0000
    17 O7A         51.2710   -11.7970    28.5250 O.co2        1 CAA1432   0.0000
    18 O8A         52.4170    -9.9070    27.2610 O.co2        1 CAA1432  -1.0000
    19 O9A         50.0870   -10.7110    26.4880 O.co2        1 CAA1432  -1.0000
    20 C4B         53.6810   -13.6200    27.3950 C.3          1 CAA1432   0.0000
    21 O4B         54.7780   -14.1640    26.5940 O.3          1 CAA1432   0.0000
    22 C5B         53.4040   -14.5220    28.6070 C.3          1 CAA1432   0.0000
    23 O5B         53.2590   -15.8920    28.2160 O.3          1 CAA1432   0.0000
    24 P1A         52.4600   -16.9290    29.1660 P.3          1 CAA1432   0.0000
    25 O1A         53.2390   -17.0470    30.4200 O.co2        1 CAA1432   0.0000
    26 O2A         51.0400   -16.5240    29.2190 O.co2        1 CAA1432  -1.0000
    27 O3A         52.5620   -18.3540    28.4180 O.3          1 CAA1432   0.0000
    28 P2A         52.4340   -18.5760    26.8360 P.3          1 CAA1432   0.0000
    29 O4A         52.6550   -17.2930    26.1540 O.co2        1 CAA1432   0.0000
    30 O5A         53.2930   -19.7280    26.4990 O.co2        1 CAA1432  -1.0000
    31 O6A         50.8870   -18.9680    26.6130 O.3          1 CAA1432   0.0000
    32 CBP         49.6760   -21.1420    26.6630 C.3          1 CAA1432   0.0000
    33 CCP         50.2180   -19.9240    27.4380 C.3          1 CAA1432   0.0000
    34 CDP         48.1910   -20.9200    26.3780 C.3          1 CAA1432   0.0000
    35 CEP         50.4110   -21.2820    25.3270 C.3          1 CAA1432   0.0000
    36 CAP         49.9140   -22.3820    27.5690 C.3          1 CAA1432   0.0000
    37 OAP         49.2960   -22.1830    28.8550 O.3          1 CAA1432   0.0000
    38 C9P         49.4420   -23.7330    26.9810 C.2          1 CAA1432   0.0000
    39 O9P         50.1260   -24.3340    26.1520 O.2          1 CAA1432   0.0000
    40 N8P         48.2860   -24.1850    27.4630 N.am         1 CAA1432   0.0000
    41 C7P         47.6770   -25.4530    27.0450 C.3          1 CAA1432   0.0000
    42 C6P         47.5230   -26.3520    28.2790 C.3          1 CAA1432   0.0000
    43 C5P         48.3230   -27.6540    28.1630 C.2          1 CAA1432   0.0000
    44 O5P         49.2260   -27.7750    27.3390 O.2          1 CAA1432   0.0000
    45 N4P         47.9660   -28.6150    29.0090 N.am         1 CAA1432   0.0000
    46 C3P         48.6440   -29.9200    29.0190 C.3          1 CAA1432   0.0000
    47 C2P         48.1070   -30.8020    30.1440 C.3          1 CAA1432   0.0000
    48 S1P         47.5960   -32.4550    29.5490 S.3          1 CAA1432   0.0000
    49 H2A         56.0943   -18.6669    25.7335 H            1 CAA1432   0.0000
    50 H6A1        57.8129   -16.8567    21.1489 H            1 CAA1432   0.0000
    51 H6A2        58.1387   -18.4527    21.7376 H            1 CAA1432   0.0000
    52 H8A         55.4627   -13.1121    22.7383 H            1 CAA1432   0.0000
    53 H1B         54.4991   -12.8567    25.0917 H            1 CAA1432   0.0000
    54 H2B         52.8634   -15.2555    25.2971 H            1 CAA1432   0.0000
    55 H7          51.5530   -13.1764    24.2961 H            1 CAA1432   0.0000
    56 H3B         51.6557   -13.9938    26.8505 H            1 CAA1432   0.0000
    57 H4B         53.9192   -12.7009    27.7089 H            1 CAA1432   0.0000
    58 H5B1        52.5610   -14.2196    29.0518 H            1 CAA1432   0.0000
    59 H5B2        54.1660   -14.4460    29.2501 H            1 CAA1432   0.0000
    60 HCP1        49.4497   -19.4692    27.8884 H            1 CAA1432   0.0000
    61 HCP2        50.8631   -20.2510    28.1286 H            1 CAA1432   0.0000
    62 HDP1        47.8272   -21.7041    25.8751 H            1 CAA1432   0.0000
    63 HDP2        47.6972   -20.8198    27.2418 H            1 CAA1432   0.0000
    64 HDP3        48.0769   -20.0909    25.8307 H            1 CAA1432   0.0000
    65 HEP1        50.0537   -22.0736    24.8313 H            1 CAA1432   0.0000
    66 HEP2        50.2708   -20.4559    24.7813 H            1 CAA1432   0.0000
    67 HEP3        51.3885   -21.4080    25.4959 H            1 CAA1432   0.0000
    68 HAP         50.8997   -22.4531    27.7215 H            1 CAA1432   0.0000
    69 H21         48.3123   -22.0488    28.7349 H            1 CAA1432   0.0000
    70 H8P         47.8080   -23.6317    28.1452 H            1 CAA1432   0.0000
    71 H7P1        48.2637   -25.9027    26.3716 H            1 CAA1432   0.0000
    72 H7P2        46.7790   -25.2785    26.6411 H            1 CAA1432   0.0000
    73 H6P1        46.5556   -26.5794    28.3909 H            1 CAA1432   0.0000
    74 H6P2        47.8426   -25.8502    29.0828 H            1 CAA1432   0.0000
    75 H4P         47.2197   -28.4469    29.6531 H            1 CAA1432   0.0000
    76 H3P1        49.6249   -29.7787    29.1530 H            1 CAA1432   0.0000
    77 H3P2        48.4896   -30.3763    28.1427 H            1 CAA1432   0.0000
    78 H2P1        47.3160   -30.3504    30.5567 H            1 CAA1432   0.0000
    79 H2P2        48.8229   -30.9156    30.8329 H            1 CAA1432   0.0000
    80 H1P         46.8512   -32.7994    30.1205 H            1 CAA1432   0.0000
@<TRIPOS>BOND
     1    1    2      ar
     2    1    6      ar
     3    2    3      ar
     4    3    4      ar
     5    4    5      ar
     6    4   10       1
     7    5    6      ar
     8    5    8       1
     9    6    7       1
    10    8    9       2
    11    9   10       1
    12   10   11       1
    13   11   12       1
    14   11   21       1
    15   12   13       1
    16   12   14       1
    17   14   15       1
    18   14   20       1
    19   15   16       1
    20   16   17      ar
    21   16   18      ar
    22   16   19      ar
    23   20   21       1
    24   20   22       1
    25   22   23       1
    26   23   24       1
    27   24   25      ar
    28   24   26      ar
    29   24   27       1
    30   27   28       1
    31   28   29      ar
    32   28   30      ar
    33   28   31       1
    34   31   33       1
    35   32   33       1
    36   32   34       1
    37   32   35       1
    38   32   36       1
    39   36   37       1
    40   36   38       1
    41   38   39       2
    42   38   40      am
    43   40   41       1
    44   41   42       1
    45   42   43       1
    46   43   44       2
    47   43   45      am
    48   45   46       1
    49   46   47       1
    50   47   48       1
    51    2   49       1
    52    7   50       1
    53    7   51       1
    54    9   52       1
    55   11   53       1
    56   12   54       1
    57   13   55       1
    58   14   56       1
    59   48   80       1
    60   47   79       1
    61   20   57       1
    62   22   58       1
    63   22   59       1
    64   47   78       1
    65   46   77       1
    66   33   60       1
    67   33   61       1
    68   34   62       1
    69   34   63       1
    70   34   64       1
    71   35   65       1
    72   35   66       1
    73   35   67       1
    74   36   68       1
    75   37   69       1
    76   40   70       1
    77   41   71       1
    78   41   72       1
    79   42   73       1
    80   42   74       1
    81   45   75       1
    82   46   76       1
@<TRIPOS>SUBSTRUCTURE
     1 CAA1432     1 GROUP             4 C     CAA     0 **** CAA C1432
