@<TRIPOS>MOLECULE
3juk_UPG_1_ligand
   58    60     1     0     0
SMALL
NO_CHARGES


@<TRIPOS>ATOM
     1 N1          59.8830    37.3130    55.8530 N.pl3        1 UPG282   0.0000
     2 C2          60.0270    35.9090    55.8450 C.2          1 UPG282   0.0000
     3 N3          58.9470    35.1800    55.7630 N.pl3        1 UPG282   0.0000
     4 C4          57.7510    35.7550    55.6910 C.2          1 UPG282   0.0000
     5 C5          57.5660    37.1390    55.6940 C.2          1 UPG282   0.0000
     6 C6          58.6930    37.9180    55.7790 C.2          1 UPG282   0.0000
     7 O2          61.1240    35.3810    55.9130 O.2          1 UPG282   0.0000
     8 O4          56.8260    35.0180    55.6260 O.2          1 UPG282   0.0000
     9 C1C         61.1090    38.0900    55.9560 C.3          1 UPG282   0.0000
    10 C2C         61.4600    38.9410    54.7670 C.3          1 UPG282   0.0000
    11 O2C         62.0420    38.2270    53.6990 O.3          1 UPG282   0.0000
    12 C3C         62.2830    40.0280    55.4130 C.3          1 UPG282   0.0000
    13 C4C         61.6470    40.1290    56.7700 C.3          1 UPG282   0.0000
    14 O4C         60.9720    38.9540    57.0280 O.3          1 UPG282   0.0000
    15 O3C         63.6250    39.7020    55.7030 O.3          1 UPG282   0.0000
    16 C5C         60.7940    41.3470    56.9160 C.3          1 UPG282   0.0000
    17 O5C         59.7890    41.2690    55.9860 O.3          1 UPG282   0.0000
    18 PA          59.1270    42.4940    55.4580 P.3          1 UPG282   0.0000
    19 O1A         58.1110    42.1740    54.6250 O.co2        1 UPG282   0.0000
    20 O2A         60.0190    43.2530    54.7040 O.co2        1 UPG282  -1.0000
    21 O3A         58.5840    43.2500    56.7260 O.3          1 UPG282   0.0000
    22 PB          58.3510    44.7670    56.9630 P.3          1 UPG282   0.0000
    23 O1B         59.4360    45.4950    56.4440 O.co2        1 UPG282   0.0000
    24 O2B         57.1150    45.1620    56.4230 O.co2        1 UPG282  -1.0000
    25 O3B         58.4190    44.9440    58.5010 O.3          1 UPG282   0.0000
    26 C1'         59.4460    44.5490    59.3830 C.3          1 UPG282   0.0000
    27 C2'         58.9140    44.5760    60.8140 C.3          1 UPG282   0.0000
    28 C3'         58.5940    46.0040    61.2670 C.3          1 UPG282   0.0000
    29 C4'         59.8270    46.8920    61.0280 C.3          1 UPG282   0.0000
    30 C5'         60.3030    46.7340    59.5660 C.3          1 UPG282   0.0000
    31 C6'         61.5400    47.5690    59.3110 C.3          1 UPG282   0.0000
    32 O2'         57.7850    43.7550    60.8160 O.3          1 UPG282   0.0000
    33 O3'         58.1260    46.0440    62.5680 O.3          1 UPG282   0.0000
    34 O4'         59.6920    48.2650    61.3650 O.3          1 UPG282   0.0000
    35 O5'         60.5830    45.3810    59.3070 O.3          1 UPG282   0.0000
    36 O6'         62.3290    47.0600    58.3380 O.3          1 UPG282   0.0000
    37 H1          59.0202    34.1827    55.7543 H            1 UPG282   0.0000
    38 H2          56.6536    37.5444    55.6368 H            1 UPG282   0.0000
    39 H3          58.6255    38.9157    55.7854 H            1 UPG282   0.0000
    40 H1C         61.8693    37.4672    56.1407 H            1 UPG282   0.0000
    41 H2C         60.6154    39.3576    54.4306 H            1 UPG282   0.0000
    42 H6          62.9545    38.5911    53.5126 H            1 UPG282   0.0000
    43 H3C         62.2144    40.8894    54.9097 H            1 UPG282   0.0000
    44 H4C         62.3857    40.2011    57.4402 H            1 UPG282   0.0000
    45 H9          64.2013    39.9349    54.9197 H            1 UPG282   0.0000
    46 H5C1        61.3426    42.1676    56.7560 H            1 UPG282   0.0000
    47 H5C2        60.4040    41.3809    57.8362 H            1 UPG282   0.0000
    48 H1'         59.7181    43.6130    59.1597 H            1 UPG282   0.0000
    49 H2'         59.6023    44.1860    61.4256 H            1 UPG282   0.0000
    50 H3'         57.8624    46.3461    60.6772 H            1 UPG282   0.0000
    51 H4'         60.5569    46.5273    61.6061 H            1 UPG282   0.0000
    52 H5'         59.5740    47.0379    58.9526 H            1 UPG282   0.0000
    53 H6'1        62.0702    47.6199    60.1573 H            1 UPG282   0.0000
    54 H6'2        61.2539    48.4884    59.0410 H            1 UPG282   0.0000
    55 H19         56.9753    44.3012    60.6017 H            1 UPG282   0.0000
    56 H20         57.1299    45.9555    62.5668 H            1 UPG282   0.0000
    57 H21         60.3664    48.5047    62.0633 H            1 UPG282   0.0000
    58 H6'         63.2817    47.3032    58.5201 H            1 UPG282   0.0000
@<TRIPOS>BOND
     1    1    2       1
     2    1    6       1
     3    1    9       1
     4    2    3       1
     5    2    7       2
     6    3    4       1
     7    4    5       1
     8    4    8       2
     9    5    6       2
    10    9   10       1
    11    9   14       1
    12   10   11       1
    13   10   12       1
    14   12   13       1
    15   12   15       1
    16   13   14       1
    17   13   16       1
    18   16   17       1
    19   17   18       1
    20   18   19      ar
    21   18   20      ar
    22   18   21       1
    23   21   22       1
    24   22   23      ar
    25   22   24      ar
    26   22   25       1
    27   25   26       1
    28   26   27       1
    29   26   35       1
    30   27   28       1
    31   27   32       1
    32   28   29       1
    33   28   33       1
    34   29   30       1
    35   29   34       1
    36   30   31       1
    37   30   35       1
    38   31   36       1
    39    3   37       1
    40    5   38       1
    41    6   39       1
    42    9   40       1
    43   10   41       1
    44   11   42       1
    45   12   43       1
    46   13   44       1
    47   15   45       1
    48   16   46       1
    49   16   47       1
    50   36   58       1
    51   34   57       1
    52   26   48       1
    53   27   49       1
    54   28   50       1
    55   29   51       1
    56   30   52       1
    57   31   53       1
    58   31   54       1
    59   32   55       1
    60   33   56       1
@<TRIPOS>SUBSTRUCTURE
     1 UPG282      1 GROUP             4 A     UPG     0 **** UPG A 282
