@<TRIPOS>MOLECULE
2qdx_FAD_1_ligand
   84    89     1     0     0
SMALL
NO_CHARGES


@<TRIPOS>ATOM
     1 PA          99.3660    30.7200    15.0000 P.3          1 FAD400   0.0000
     2 O1A        100.1110    31.8990    15.4110 O.co2        1 FAD400   0.0000
     3 O2A         99.6510    29.5640    15.6470 O.co2        1 FAD400  -1.0000
     4 O5B         97.8590    30.8200    15.4530 O.3          1 FAD400   0.0000
     5 C5B         97.1660    32.1340    14.9200 C.3          1 FAD400   0.0000
     6 C4B         95.7070    32.1830    15.3490 C.3          1 FAD400   0.0000
     7 O4B         95.0150    31.1640    14.5340 O.3          1 FAD400   0.0000
     8 C3B         95.3160    31.7870    16.7910 C.3          1 FAD400   0.0000
     9 O3B         95.5190    32.7540    17.7680 O.3          1 FAD400   0.0000
    10 C2B         93.8780    31.3480    16.6110 C.3          1 FAD400   0.0000
    11 O2B         92.9760    32.4050    16.6110 O.3          1 FAD400   0.0000
    12 C1B         93.8660    30.6240    15.3130 C.3          1 FAD400   0.0000
    13 N9A         94.3360    29.1710    15.0770 N.pl3        1 FAD400   0.0000
    14 C8A         95.4980    28.4010    15.0710 C.2          1 FAD400   0.0000
    15 N7A         95.2980    27.1510    14.8000 N.2          1 FAD400   0.0000
    16 C5A         93.9530    27.0340    14.6090 C.ar         1 FAD400   0.0000
    17 C6A         93.1450    25.9030    14.2830 C.ar         1 FAD400   0.0000
    18 N6A         93.6560    24.6830    14.0990 N.pl3        1 FAD400   0.0000
    19 N1A         91.7710    26.0940    14.1490 N.ar         1 FAD400   0.0000
    20 C2A         91.2100    27.3630    14.3330 C.ar         1 FAD400   0.0000
    21 N3A         91.9410    28.4880    14.6490 N.ar         1 FAD400   0.0000
    22 C4A         93.3020    28.2880    14.7760 C.ar         1 FAD400   0.0000
    23 N1          96.2610    22.9930    13.9960 N.2          1 FAD400   0.0000
    24 C2          95.8060    22.3550    12.8670 C.2          1 FAD400   0.0000
    25 O2          95.4860    22.9710    11.8890 O.2          1 FAD400   0.0000
    26 N3          95.7180    20.9470    12.8850 N.pl3        1 FAD400   0.0000
    27 C4          96.0450    20.1660    13.9750 C.2          1 FAD400   0.0000
    28 O4          95.9410    18.9290    13.9200 O.2          1 FAD400   0.0000
    29 C4X         96.4810    20.8220    15.1330 C.2          1 FAD400   0.0000
    30 N5          96.7860    20.1100    16.2800 N.2          1 FAD400   0.0000
    31 C5X         97.1830    20.7640    17.4420 C.ar         1 FAD400   0.0000
    32 C6          97.4410    20.0170    18.6060 C.ar         1 FAD400   0.0000
    33 C7          97.8250    20.6530    19.8190 C.ar         1 FAD400   0.0000
    34 C7M         98.0740    19.8040    21.0360 C.3          1 FAD400   0.0000
    35 C8          97.9570    22.1050    19.8340 C.ar         1 FAD400   0.0000
    36 C8M         98.3500    22.8590    21.0780 C.3          1 FAD400   0.0000
    37 C9          97.7080    22.8730    18.6610 C.ar         1 FAD400   0.0000
    38 C9A         97.3130    22.2370    17.4470 C.ar         1 FAD400   0.0000
    39 N10         97.0130    22.9480    16.2150 N.pl3        1 FAD400   0.0000
    40 C10         96.5840    22.2540    15.0970 C.2          1 FAD400   0.0000
    41 C1'         97.3950    24.3950    16.1120 C.3          1 FAD400   0.0000
    42 C2'         98.7630    24.5940    15.4550 C.3          1 FAD400   0.0000
    43 O2'         99.7350    24.2520    16.4490 O.3          1 FAD400   0.0000
    44 C3'         99.0630    25.9950    14.9660 C.3          1 FAD400   0.0000
    45 O3'         98.4640    26.9300    15.8680 O.3          1 FAD400   0.0000
    46 C4'         98.5490    26.0840    13.4740 C.3          1 FAD400   0.0000
    47 O4'         99.2260    25.2410    12.7120 O.3          1 FAD400   0.0000
    48 C5'         98.5010    27.6310    13.0720 C.3          1 FAD400   0.0000
    49 O5'         99.9510    28.1750    13.0900 O.3          1 FAD400   0.0000
    50 P          100.1740    29.4490    12.6000 P.3          1 FAD400   0.0000
    51 O1P        101.5690    29.5160    12.8590 O.co2        1 FAD400   0.0000
    52 O2P         99.7820    29.5780    11.2940 O.co2        1 FAD400  -1.0000
    53 O3P         99.2320    30.4820    13.4210 O.3          1 FAD400   0.0000
    54 H5B1        97.2154    32.1495    13.9213 H            1 FAD400   0.0000
    55 H5B2        97.6441    32.9307    15.2898 H            1 FAD400   0.0000
    56 H4B         95.3306    33.0856    15.1400 H            1 FAD400   0.0000
    57 H3B         95.8522    30.9813    17.0426 H            1 FAD400   0.0000
    58 H5          94.6466    32.9761    18.2035 H            1 FAD400   0.0000
    59 H2B         93.6361    30.7113    17.3432 H            1 FAD400   0.0000
    60 H7          92.6668    32.5793    17.5459 H            1 FAD400   0.0000
    61 H1B         93.0078    30.7941    14.8287 H            1 FAD400   0.0000
    62 H8A         96.4041    28.7799    15.2590 H            1 FAD400   0.0000
    63 H6A1        93.0538    23.9177    13.8717 H            1 FAD400   0.0000
    64 H6A2        94.6409    24.5347    14.1885 H            1 FAD400   0.0000
    65 H2A         90.2201    27.4592    14.2290 H            1 FAD400   0.0000
    66 H13         95.3990    20.4864    12.0567 H            1 FAD400   0.0000
    67 H14         97.3528    19.0212    18.5801 H            1 FAD400   0.0000
    68 H7M1        98.3338    20.3898    21.8036 H            1 FAD400   0.0000
    69 H7M2        97.2413    19.3009    21.2675 H            1 FAD400   0.0000
    70 H7M3        98.8123    19.1570    20.8457 H            1 FAD400   0.0000
    71 H8M1        98.3838    23.8381    20.8776 H            1 FAD400   0.0000
    72 H8M2        97.6766    22.6890    21.7975 H            1 FAD400   0.0000
    73 H8M3        99.2504    22.5502    21.3845 H            1 FAD400   0.0000
    74 H21         97.8110    23.8673    18.6887 H            1 FAD400   0.0000
    75 H1'1        97.4210    24.7862    17.0319 H            1 FAD400   0.0000
    76 H1'2        96.7050    24.8709    15.5667 H            1 FAD400   0.0000
    77 H2'         98.8484    23.9587    14.6875 H            1 FAD400   0.0000
    78 H25         99.9493    23.2774    16.3843 H            1 FAD400   0.0000
    79 H3'        100.0535    26.1320    14.9728 H            1 FAD400   0.0000
    80 H27         99.0050    27.7709    15.8843 H            1 FAD400   0.0000
    81 H4'         97.6020    25.7629    13.4805 H            1 FAD400   0.0000
    82 H29         98.6443    24.9302    11.9603 H            1 FAD400   0.0000
    83 H5'1        97.9411    28.1353    13.7294 H            1 FAD400   0.0000
    84 H5'2        98.1120    27.7318    12.1563 H            1 FAD400   0.0000
@<TRIPOS>BOND
     1    1    2      ar
     2    1    3      ar
     3    1    4       1
     4    1   53       1
     5    4    5       1
     6    5    6       1
     7    6    7       1
     8    6    8       1
     9    7   12       1
    10    8    9       1
    11    8   10       1
    12   10   11       1
    13   10   12       1
    14   12   13       1
    15   13   14       1
    16   13   22       1
    17   14   15       2
    18   15   16       1
    19   16   17      ar
    20   16   22      ar
    21   17   18       1
    22   17   19      ar
    23   19   20      ar
    24   20   21      ar
    25   21   22      ar
    26   23   24       1
    27   23   40       2
    28   24   25       2
    29   24   26       1
    30   26   27       1
    31   27   28       2
    32   27   29       1
    33   29   30       2
    34   29   40       1
    35   30   31       1
    36   31   32      ar
    37   31   38      ar
    38   32   33      ar
    39   33   34       1
    40   33   35      ar
    41   35   36       1
    42   35   37      ar
    43   37   38      ar
    44   38   39       1
    45   39   40       1
    46   39   41       1
    47   41   42       1
    48   42   43       1
    49   42   44       1
    50   44   45       1
    51   44   46       1
    52   46   47       1
    53   46   48       1
    54   48   49       1
    55   49   50       1
    56   50   51      ar
    57   50   52      ar
    58   50   53       1
    59   48   84       1
    60    5   54       1
    61    5   55       1
    62    6   56       1
    63    8   57       1
    64    9   58       1
    65   10   59       1
    66   11   60       1
    67   12   61       1
    68   14   62       1
    69   18   63       1
    70   18   64       1
    71   20   65       1
    72   26   66       1
    73   32   67       1
    74   34   68       1
    75   34   69       1
    76   34   70       1
    77   36   71       1
    78   36   72       1
    79   36   73       1
    80   37   74       1
    81   41   75       1
    82   41   76       1
    83   42   77       1
    84   43   78       1
    85   44   79       1
    86   45   80       1
    87   46   81       1
    88   47   82       1
    89   48   83       1
@<TRIPOS>SUBSTRUCTURE
     1 FAD400      1 GROUP             4 A     FAD     0 **** FAD A 400
