@<TRIPOS>MOLECULE
3kru_FMN_1_ligand
   50    52     1     0     0
SMALL
NO_CHARGES


@<TRIPOS>ATOM
     1 N1         101.4220    -4.3060    20.0350 N.2          1 FMN401   0.0000
     2 C2         102.2860    -3.5720    19.2970 C.2          1 FMN401   0.0000
     3 O2         103.2810    -3.0670    19.7870 O.2          1 FMN401   0.0000
     4 N3         102.0960    -3.4210    17.9810 N.pl3        1 FMN401   0.0000
     5 C4         101.0260    -3.9500    17.3560 C.2          1 FMN401   0.0000
     6 O4         100.9060    -3.6870    16.1580 O.2          1 FMN401   0.0000
     7 C4A        100.1130    -4.7420    18.0740 C.2          1 FMN401   0.0000
     8 N5          99.0390    -5.3720    17.4900 N.2          1 FMN401   0.0000
     9 C5A         98.0730    -5.8630    18.2890 C.ar         1 FMN401   0.0000
    10 C6          96.8390    -6.1960    17.7440 C.ar         1 FMN401   0.0000
    11 C7          95.7990    -6.6270    18.5420 C.ar         1 FMN401   0.0000
    12 C7M         94.5170    -6.9760    17.8310 C.3          1 FMN401   0.0000
    13 C8          95.9710    -6.7110    19.9280 C.ar         1 FMN401   0.0000
    14 C8M         94.8860    -7.1640    20.8670 C.3          1 FMN401   0.0000
    15 C9          97.1990    -6.3550    20.4770 C.ar         1 FMN401   0.0000
    16 C9A         98.2650    -5.9080    19.6820 C.ar         1 FMN401   0.0000
    17 N10         99.4720    -5.5530    20.2150 N.pl3        1 FMN401   0.0000
    18 C10        100.3400    -4.8830    19.4460 C.2          1 FMN401   0.0000
    19 C1'         99.6360    -5.3730    21.6680 C.3          1 FMN401   0.0000
    20 C2'         98.8530    -4.1780    22.2400 C.3          1 FMN401   0.0000
    21 O2'         99.3000    -2.9200    21.7010 O.3          1 FMN401   0.0000
    22 C3'         99.0050    -4.1050    23.7610 C.3          1 FMN401   0.0000
    23 O3'        100.3970    -3.9440    24.0610 O.3          1 FMN401   0.0000
    24 C4'         98.5290    -5.3710    24.4970 C.3          1 FMN401   0.0000
    25 O4'         97.2820    -5.8250    23.9640 O.3          1 FMN401   0.0000
    26 C5'         98.3020    -5.1180    25.9820 C.3          1 FMN401   0.0000
    27 O5'         97.3880    -4.0380    26.1230 O.3          1 FMN401   0.0000
    28 P           95.8200    -4.1910    26.4050 P.3          1 FMN401   0.0000
    29 O1P         95.1740    -4.6550    25.1160 O.co2        1 FMN401   0.0000
    30 O2P         95.6740    -5.2010    27.5180 O.co2        1 FMN401  -1.0000
    31 O3P         95.4270    -2.7900    26.7710 O.co2        1 FMN401  -1.0000
    32 H1         102.7648    -2.9026    17.4482 H            1 FMN401   0.0000
    33 H2          96.7022    -6.1220    16.7562 H            1 FMN401   0.0000
    34 H7M1        93.8356    -7.2741    18.4995 H            1 FMN401   0.0000
    35 H7M2        94.1765    -6.1718    17.3438 H            1 FMN401   0.0000
    36 H7M3        94.6882    -7.7137    17.1779 H            1 FMN401   0.0000
    37 H8M1        95.2291    -7.1462    21.8061 H            1 FMN401   0.0000
    38 H8M2        94.0995    -6.5515    20.7878 H            1 FMN401   0.0000
    39 H8M3        94.6084    -8.0953    20.6311 H            1 FMN401   0.0000
    40 H9          97.3253    -6.4196    21.4669 H            1 FMN401   0.0000
    41 H1'1       100.6074    -5.2342    21.8605 H            1 FMN401   0.0000
    42 H1'2        99.3209    -6.2043    22.1259 H            1 FMN401   0.0000
    43 H2'         97.8845    -4.2947    22.0201 H            1 FMN401   0.0000
    44 H13         99.1797    -2.9211    20.7083 H            1 FMN401   0.0000
    45 H3'         98.4997    -3.3137    24.1053 H            1 FMN401   0.0000
    46 H15        100.5335    -3.0889    24.5612 H            1 FMN401   0.0000
    47 H4'         99.2142    -6.0912    24.3878 H            1 FMN401   0.0000
    48 H17         96.5298    -5.3949    24.4631 H            1 FMN401   0.0000
    49 H5'1        99.1698    -4.8845    26.4206 H            1 FMN401   0.0000
    50 H5'2        97.9226    -5.9385    26.4095 H            1 FMN401   0.0000
@<TRIPOS>BOND
     1    1    2       1
     2    1   18       2
     3    2    3       2
     4    2    4       1
     5    4    5       1
     6    5    6       2
     7    5    7       1
     8    7    8       2
     9    7   18       1
    10    8    9       1
    11    9   10      ar
    12    9   16      ar
    13   10   11      ar
    14   11   12       1
    15   11   13      ar
    16   13   14       1
    17   13   15      ar
    18   15   16      ar
    19   16   17       1
    20   17   18       1
    21   17   19       1
    22   19   20       1
    23   20   21       1
    24   20   22       1
    25   22   23       1
    26   22   24       1
    27   24   25       1
    28   24   26       1
    29   26   27       1
    30   27   28       1
    31   28   29      ar
    32   28   30      ar
    33   28   31      ar
    34    4   32       1
    35   10   33       1
    36   12   34       1
    37   12   35       1
    38   12   36       1
    39   14   37       1
    40   14   38       1
    41   14   39       1
    42   15   40       1
    43   19   41       1
    44   19   42       1
    45   20   43       1
    46   21   44       1
    47   22   45       1
    48   23   46       1
    49   24   47       1
    50   25   48       1
    51   26   49       1
    52   26   50       1
@<TRIPOS>SUBSTRUCTURE
     1 FMN401      1 GROUP             4 A     FMN     0 **** FMN A 401
