@<TRIPOS>MOLECULE
4jbi_NDP_3_ligand
   73    77     1     0     0
SMALL
NO_CHARGES


@<TRIPOS>ATOM
     1 PA         -69.8320    38.9880    27.0660 P.3          1 NDP401   0.0000
     2 O1A        -69.8510    37.9080    28.0970 O.co2        1 NDP401   0.0000
     3 O2A        -70.9410    39.9410    27.2630 O.co2        1 NDP401  -1.0000
     4 O5B        -68.4690    39.8710    27.1700 O.3          1 NDP401   0.0000
     5 C5B        -68.2890    40.9980    26.3320 C.3          1 NDP401   0.0000
     6 C4B        -67.5080    42.0180    27.1340 C.3          1 NDP401   0.0000
     7 O4B        -67.2860    43.2050    26.3910 O.3          1 NDP401   0.0000
     8 C3B        -68.2270    42.4510    28.4140 C.3          1 NDP401   0.0000
     9 O3B        -67.9620    41.5570    29.4850 O.3          1 NDP401   0.0000
    10 C2B        -67.7490    43.8770    28.6370 C.3          1 NDP401   0.0000
    11 O2B        -66.6090    43.8910    29.4700 O.3          1 NDP401   0.0000
    12 C1B        -67.3570    44.3250    27.2330 C.3          1 NDP401   0.0000
    13 N9A        -68.3740    45.2370    26.7230 N.pl3        1 NDP401   0.0000
    14 C8A        -69.7460    45.0610    26.7350 C.2          1 NDP401   0.0000
    15 N7A        -70.3170    46.1520    26.1750 N.2          1 NDP401   0.0000
    16 C5A        -69.3080    46.9810    25.8000 C.ar         1 NDP401   0.0000
    17 C6A        -69.3280    48.2160    25.2050 C.ar         1 NDP401   0.0000
    18 N6A        -70.5170    48.6780    24.8310 N.pl3        1 NDP401   0.0000
    19 N1A        -68.1280    48.8770    24.9350 N.ar         1 NDP401   0.0000
    20 C2A        -66.9010    48.3080    25.2530 C.ar         1 NDP401   0.0000
    21 N3A        -66.8950    47.0530    25.8680 N.ar         1 NDP401   0.0000
    22 C4A        -68.0810    46.4280    26.1320 C.ar         1 NDP401   0.0000
    23 O3         -69.8210    38.5070    25.5050 O.3          1 NDP401   0.0000
    24 PN         -69.2230    37.1030    24.9640 P.3          1 NDP401   0.0000
    25 O1N        -70.0770    35.9890    25.3990 O.co2        1 NDP401   0.0000
    26 O2N        -67.7720    37.0310    25.3440 O.co2        1 NDP401  -1.0000
    27 O5D        -69.4190    37.2880    23.3790 O.3          1 NDP401   0.0000
    28 C5D        -68.8730    38.4460    22.7800 C.3          1 NDP401   0.0000
    29 C4D        -69.3270    38.5800    21.3250 C.3          1 NDP401   0.0000
    30 O4D        -68.8870    37.5170    20.5130 O.3          1 NDP401   0.0000
    31 C3D        -70.8390    38.5830    21.1890 C.3          1 NDP401   0.0000
    32 O3D        -71.1210    39.4640    20.1400 O.3          1 NDP401   0.0000
    33 C2D        -71.2210    37.2020    20.7060 C.3          1 NDP401   0.0000
    34 O2D        -72.3940    37.2490    19.9130 O.3          1 NDP401   0.0000
    35 C1D        -69.9830    36.8590    19.8840 C.3          1 NDP401   0.0000
    36 N1N        -69.7570    35.4130    19.9270 N.ar         1 NDP401   1.0000
    37 C2N        -69.5220    34.7870    18.7540 C.ar         1 NDP401   0.0000
    38 C3N        -69.2770    33.4270    18.7140 C.ar         1 NDP401   0.0000
    39 C7N        -68.9370    32.7940    17.3830 C.2          1 NDP401   0.0000
    40 O7N        -68.6570    31.4520    17.2860 O.2          1 NDP401   0.0000
    41 N7N        -68.7530    33.5340    16.3000 N.am         1 NDP401   0.0000
    42 C4N        -69.2500    32.6080    19.9890 C.ar         1 NDP401   0.0000
    43 C5N        -69.4820    33.4120    21.2210 C.ar         1 NDP401   0.0000
    44 C6N        -69.7280    34.7650    21.1390 C.ar         1 NDP401   0.0000
    45 P2B        -66.2120    45.1290    30.4670 P.3          1 NDP401   0.0000
    46 O1X        -65.2290    46.0370    29.8130 O.co2        1 NDP401   0.0000
    47 O2X        -65.5190    44.4430    31.6310 O.co2        1 NDP401  -1.0000
    48 O3X        -67.4390    45.9310    30.8110 O.co2        1 NDP401  -1.0000
    49 H5B1       -69.1763    41.3749    26.0663 H            1 NDP401   0.0000
    50 H5B2       -67.7777    40.7396    25.5124 H            1 NDP401   0.0000
    51 H4B        -66.6229    41.6232    27.3806 H            1 NDP401   0.0000
    52 H3B        -69.2119    42.4645    28.2416 H            1 NDP401   0.0000
    53 H5         -67.1506    41.8639    29.9824 H            1 NDP401   0.0000
    54 H2B        -68.4785    44.4501    29.0104 H            1 NDP401   0.0000
    55 H1B        -66.4702    44.7863    27.2594 H            1 NDP401   0.0000
    56 H8A        -70.2319    44.2647    27.0954 H            1 NDP401   0.0000
    57 H6A1       -70.5900    49.5735    24.3921 H            1 NDP401   0.0000
    58 H6A2       -71.3385    48.1300    24.9886 H            1 NDP401   0.0000
    59 H2A        -66.0456    48.7834    25.0475 H            1 NDP401   0.0000
    60 H5D1       -67.8750    38.3879    22.8067 H            1 NDP401   0.0000
    61 H5D2       -69.1738    39.2510    23.2914 H            1 NDP401   0.0000
    62 H4D        -68.9692    39.4371    20.9543 H            1 NDP401   0.0000
    63 H3D        -71.3016    38.8354    22.0389 H            1 NDP401   0.0000
    64 H16        -72.1101    39.5099    20.0000 H            1 NDP401   0.0000
    65 H2D        -71.3302    36.5698    21.4731 H            1 NDP401   0.0000
    66 H18        -72.9715    38.0069    20.2166 H            1 NDP401   0.0000
    67 H1D        -70.0881    37.1720    18.9401 H            1 NDP401   0.0000
    68 H2N        -69.5252    35.3135    17.9038 H            1 NDP401   0.0000
    69 H7N1       -68.5288    33.0978    15.4285 H            1 NDP401   0.0000
    70 H7N2       -68.8383    34.5289    16.3538 H            1 NDP401   0.0000
    71 H4N        -69.0913    31.6207    20.0018 H            1 NDP401   0.0000
    72 H5N        -69.4590    32.9658    22.1156 H            1 NDP401   0.0000
    73 H6N        -69.8886    35.2858    21.9774 H            1 NDP401   0.0000
@<TRIPOS>BOND
     1    1    2      ar
     2    1    3      ar
     3    1    4       1
     4    1   23       1
     5    4    5       1
     6    5    6       1
     7    6    7       1
     8    6    8       1
     9    7   12       1
    10    8    9       1
    11    8   10       1
    12   10   11       1
    13   10   12       1
    14   11   45       1
    15   12   13       1
    16   13   14       1
    17   13   22       1
    18   14   15       2
    19   15   16       1
    20   16   17      ar
    21   16   22      ar
    22   17   18       1
    23   17   19      ar
    24   19   20      ar
    25   20   21      ar
    26   21   22      ar
    27   23   24       1
    28   24   25      ar
    29   24   26      ar
    30   24   27       1
    31   27   28       1
    32   28   29       1
    33   29   30       1
    34   29   31       1
    35   30   35       1
    36   31   32       1
    37   31   33       1
    38   33   34       1
    39   33   35       1
    40   35   36       1
    41   36   37      ar
    42   36   44      ar
    43   37   38      ar
    44   38   39       1
    45   38   42      ar
    46   39   40       2
    47   39   41      am
    48   42   43      ar
    49   43   44      ar
    50   45   46      ar
    51   45   47      ar
    52   45   48      ar
    53   43   72       1
    54    5   49       1
    55    5   50       1
    56    6   51       1
    57    8   52       1
    58    9   53       1
    59   10   54       1
    60   12   55       1
    61   14   56       1
    62   18   57       1
    63   18   58       1
    64   20   59       1
    65   44   73       1
    66   28   60       1
    67   28   61       1
    68   29   62       1
    69   31   63       1
    70   32   64       1
    71   33   65       1
    72   34   66       1
    73   35   67       1
    74   37   68       1
    75   41   69       1
    76   41   70       1
    77   42   71       1
@<TRIPOS>SUBSTRUCTURE
     1 NDP401      1 GROUP             4 C     NDP     0 **** NDP C 401
