@<TRIPOS>MOLECULE
3tne_RIT_1_ligand
   98   101     1     0     0
SMALL
NO_CHARGES


@<TRIPOS>ATOM
     1 C1           2.8150   -26.1570   -28.0330 C.2          1 RIT401   0.0000
     2 C2           3.9470   -26.5360   -27.3180 C.2          1 RIT401   0.0000
     3 S3           3.7290   -28.1040   -26.6090 S.3          1 RIT401   0.0000
     4 C4           2.1510   -28.2710   -27.2870 C.2          1 RIT401   0.0000
     5 N5           1.8480   -27.1420   -27.9920 N.2          1 RIT401   0.0000
     6 C6           5.2470   -25.8690   -27.0090 C.3          1 RIT401   0.0000
     7 O7           4.9610   -24.5250   -26.6730 O.3          1 RIT401   0.0000
     8 C10          5.6960   -23.4980   -27.3990 C.2          1 RIT401   0.0000
     9 O24          6.6360   -23.8230   -28.1240 O.2          1 RIT401   0.0000
    10 N11          5.3590   -22.2280   -27.2570 N.am         1 RIT401   0.0000
    11 C12          6.1910   -21.2110   -27.8800 C.3          1 RIT401   0.0000
    12 C13          6.2250   -20.0070   -26.9340 C.3          1 RIT401   0.0000
    13 C14          6.6640   -20.3200   -25.4850 C.3          1 RIT401   0.0000
    14 C15          8.1730   -20.3470   -25.2060 C.3          1 RIT401   0.0000
    15 C26          5.7150   -20.9260   -29.3210 C.3          1 RIT401   0.0000
    16 C28          5.8430   -22.1550   -30.2150 C.ar         1 RIT401   0.0000
    17 C31          6.9970   -22.3510   -30.9960 C.ar         1 RIT401   0.0000
    18 C32          7.1340   -23.4790   -31.8300 C.ar         1 RIT401   0.0000
    19 C33          6.1260   -24.4420   -31.8900 C.ar         1 RIT401   0.0000
    20 C34          4.9740   -24.2600   -31.1200 C.ar         1 RIT401   0.0000
    21 C35          4.8280   -23.1210   -30.2890 C.ar         1 RIT401   0.0000
    22 O41          4.9160   -19.4520   -26.8900 O.3          1 RIT401   0.0000
    23 C44          8.4980   -19.5050   -23.9590 C.3          1 RIT401   0.0000
    24 C45          9.8610   -19.7440   -23.3170 C.ar         1 RIT401   0.0000
    25 C48         10.1350   -18.9940   -22.1740 C.ar         1 RIT401   0.0000
    26 C49         11.3340   -19.1330   -21.4580 C.ar         1 RIT401   0.0000
    27 C50         12.2850   -20.0550   -21.8890 C.ar         1 RIT401   0.0000
    28 C51         12.0250   -20.8220   -23.0350 C.ar         1 RIT401   0.0000
    29 C52         10.8220   -20.6790   -23.7460 C.ar         1 RIT401   0.0000
    30 N58          8.9460   -19.7340   -26.2510 N.am         1 RIT401   0.0000
    31 N20         11.7110   -18.9270   -27.3250 N.am         1 RIT401   0.0000
    32 C19         10.4480   -19.2890   -27.9360 C.3          1 RIT401   0.0000
    33 C18          9.7760   -20.3210   -27.0970 C.2          1 RIT401   0.0000
    34 O61         10.0290   -21.5200   -27.2180 O.2          1 RIT401   0.0000
    35 C62         10.7130   -19.8110   -29.3620 C.3          1 RIT401   0.0000
    36 C64          9.4270   -19.9800   -30.1530 C.3          1 RIT401   0.0000
    37 C68         11.7070   -18.9330   -30.1190 C.3          1 RIT401   0.0000
    38 C21         12.1610   -17.7030   -27.4110 C.2          1 RIT401   0.0000
    39 N74         13.4640   -17.4990   -27.5110 N.am         1 RIT401   0.0000
    40 C75         14.0710   -16.2830   -26.9960 C.3          1 RIT401   0.0000
    41 O76         11.4060   -16.7770   -27.5530 O.2          1 RIT401   0.0000
    42 C77         14.0030   -16.3670   -25.5060 C.2          1 RIT401   0.0000
    43 C80         12.8330   -16.6210   -24.7810 C.2          1 RIT401   0.0000
    44 S81         13.1900   -16.6510   -23.0900 S.3          1 RIT401   0.0000
    45 C82         14.8830   -16.3350   -23.3860 C.2          1 RIT401   0.0000
    46 N83         15.1200   -16.2200   -24.7250 N.2          1 RIT401   0.0000
    47 C85         15.7900   -16.2480   -22.2110 C.3          1 RIT401   0.0000
    48 C86         15.0210   -15.8990   -20.9300 C.3          1 RIT401   0.0000
    49 C90         16.9160   -15.2470   -22.5190 C.3          1 RIT401   0.0000
    50 C95         14.3970   -18.4060   -28.1880 C.3          1 RIT401   0.0000
    51 H1           2.7149   -25.2857   -28.5135 H            1 RIT401   0.0000
    52 H2           1.5546   -29.0666   -27.1806 H            1 RIT401   0.0000
    53 H3           5.8469   -25.9016   -27.8084 H            1 RIT401   0.0000
    54 H4           5.6921   -26.3268   -26.2394 H            1 RIT401   0.0000
    55 H5           4.5478   -21.9715   -26.7315 H            1 RIT401   0.0000
    56 H6           7.1204   -21.5757   -27.9366 H            1 RIT401   0.0000
    57 H7           6.8475   -19.3225   -27.3135 H            1 RIT401   0.0000
    58 H8           6.2966   -21.2188   -25.2457 H            1 RIT401   0.0000
    59 H9           6.2594   -19.6253   -24.8902 H            1 RIT401   0.0000
    60 H10          8.4761   -21.2899   -25.0677 H            1 RIT401   0.0000
    61 H11          6.2697   -20.1877   -29.7048 H            1 RIT401   0.0000
    62 H12          4.7561   -20.6435   -29.2949 H            1 RIT401   0.0000
    63 H13          7.7345   -21.6767   -30.9586 H            1 RIT401   0.0000
    64 H14          7.9598   -23.5900   -32.3829 H            1 RIT401   0.0000
    65 H15          6.2261   -25.2479   -32.4735 H            1 RIT401   0.0000
    66 H16          4.2435   -24.9419   -31.1557 H            1 RIT401   0.0000
    67 H17          3.9936   -23.0048   -29.7503 H            1 RIT401   0.0000
    68 H18          4.8238   -18.7585   -27.6045 H            1 RIT401   0.0000
    69 H19          7.7990   -19.6983   -23.2705 H            1 RIT401   0.0000
    70 H20          8.4498   -18.5412   -24.2214 H            1 RIT401   0.0000
    71 H21          9.4544   -18.3350   -21.8537 H            1 RIT401   0.0000
    72 H22         11.5041   -18.5751   -20.6457 H            1 RIT401   0.0000
    73 H23         13.1428   -20.1690   -21.3878 H            1 RIT401   0.0000
    74 H24         12.7074   -21.4813   -23.3507 H            1 RIT401   0.0000
    75 H25         10.6486   -21.2402   -24.5553 H            1 RIT401   0.0000
    76 H26          8.8440   -18.7442   -26.3505 H            1 RIT401   0.0000
    77 H27         12.2417   -19.6181   -26.8344 H            1 RIT401   0.0000
    78 H28          9.8649   -18.4783   -27.9873 H            1 RIT401   0.0000
    79 H29         11.1267   -20.7171   -29.2731 H            1 RIT401   0.0000
    80 H30          9.6412   -20.3190   -31.0691 H            1 RIT401   0.0000
    81 H31          8.8320   -20.6342   -29.6861 H            1 RIT401   0.0000
    82 H32          8.9613   -19.0980   -30.2245 H            1 RIT401   0.0000
    83 H33         11.8500   -19.3057   -31.0359 H            1 RIT401   0.0000
    84 H34         11.3444   -18.0037   -30.1897 H            1 RIT401   0.0000
    85 H35         12.5775   -18.9146   -29.6271 H            1 RIT401   0.0000
    86 H36         13.5667   -15.4824   -27.3194 H            1 RIT401   0.0000
    87 H37         15.0233   -16.2200   -27.2945 H            1 RIT401   0.0000
    88 H38         11.9276   -16.7635   -25.1808 H            1 RIT401   0.0000
    89 H39         16.2080   -17.1471   -22.0808 H            1 RIT401   0.0000
    90 H40         15.6589   -15.8486   -20.1615 H            1 RIT401   0.0000
    91 H41         14.5664   -15.0157   -21.0443 H            1 RIT401   0.0000
    92 H42         14.3365   -16.6053   -20.7492 H            1 RIT401   0.0000
    93 H43         17.5301   -15.1836   -21.7323 H            1 RIT401   0.0000
    94 H44         17.4295   -15.5586   -23.3185 H            1 RIT401   0.0000
    95 H45         16.5206   -14.3478   -22.7065 H            1 RIT401   0.0000
    96 H46         15.3239   -18.0353   -28.1294 H            1 RIT401   0.0000
    97 H47         14.3684   -19.3033   -27.7475 H            1 RIT401   0.0000
    98 H48         14.1348   -18.4978   -29.1486 H            1 RIT401   0.0000
@<TRIPOS>BOND
     1    1    2       2
     2    1    5       1
     3    2    3       1
     4    2    6       1
     5    3    4       1
     6    4    5       2
     7    6    7       1
     8    7    8       1
     9    8    9       2
    10    8   10      am
    11   10   11       1
    12   11   12       1
    13   11   15       1
    14   12   13       1
    15   12   22       1
    16   13   14       1
    17   14   23       1
    18   14   30       1
    19   15   16       1
    20   16   17      ar
    21   16   21      ar
    22   17   18      ar
    23   18   19      ar
    24   19   20      ar
    25   20   21      ar
    26   23   24       1
    27   24   25      ar
    28   24   29      ar
    29   25   26      ar
    30   26   27      ar
    31   27   28      ar
    32   28   29      ar
    33   30   33      am
    34   31   32       1
    35   31   38      am
    36   32   33       1
    37   32   35       1
    38   33   34       2
    39   35   36       1
    40   35   37       1
    41   38   39      am
    42   38   41       2
    43   39   40       1
    44   39   50       1
    45   40   42       1
    46   42   43       2
    47   42   46       1
    48   43   44       1
    49   44   45       1
    50   45   46       2
    51   45   47       1
    52   47   48       1
    53   47   49       1
    54    1   51       1
    55    4   52       1
    56    6   53       1
    57    6   54       1
    58   10   55       1
    59   11   56       1
    60   12   57       1
    61   13   58       1
    62   13   59       1
    63   14   60       1
    64   15   61       1
    65   15   62       1
    66   17   63       1
    67   18   64       1
    68   19   65       1
    69   20   66       1
    70   21   67       1
    71   22   68       1
    72   23   69       1
    73   23   70       1
    74   25   71       1
    75   26   72       1
    76   27   73       1
    77   28   74       1
    78   29   75       1
    79   30   76       1
    80   31   77       1
    81   32   78       1
    82   35   79       1
    83   36   80       1
    84   36   81       1
    85   36   82       1
    86   37   83       1
    87   37   84       1
    88   37   85       1
    89   40   86       1
    90   40   87       1
    91   43   88       1
    92   47   89       1
    93   48   90       1
    94   48   91       1
    95   48   92       1
    96   49   93       1
    97   49   94       1
    98   49   95       1
    99   50   96       1
   100   50   97       1
   101   50   98       1
@<TRIPOS>SUBSTRUCTURE
     1 RIT401      1 GROUP             4 A     RIT     0 **** RIT A 401
