@<TRIPOS>MOLECULE
3kyt_HC2_1_ligand
   75    78     1     0     0
SMALL
NO_CHARGES


@<TRIPOS>ATOM
     1 C1         -24.9340    -0.1580   -18.8360 C.3          1 HC21001   0.0000
     2 C2         -24.6950    -1.6900   -18.8860 C.3          1 HC21001   0.0000
     3 C3         -24.2670    -2.3370   -17.5530 C.3          1 HC21001   0.0000
     4 C4         -25.1290    -1.8370   -16.3790 C.3          1 HC21001   0.0000
     5 C5         -25.0050    -0.3280   -16.3310 C.2          1 HC21001   0.0000
     6 C6         -24.4800     0.2430   -15.2210 C.2          1 HC21001   0.0000
     7 C7         -24.6020     1.7330   -14.8760 C.3          1 HC21001   0.0000
     8 C8         -25.3470     2.5150   -15.9540 C.3          1 HC21001   0.0000
     9 C9         -25.0450     1.9330   -17.3660 C.3          1 HC21001   0.0000
    10 C10        -25.4940     0.4680   -17.5380 C.3          1 HC21001   0.0000
    11 C11        -25.6430     2.8000   -18.4930 C.3          1 HC21001   0.0000
    12 C12        -25.4760     4.3190   -18.3550 C.3          1 HC21001   0.0000
    13 C13        -25.8040     4.8370   -16.9400 C.3          1 HC21001   0.0000
    14 C14        -24.9930     4.0050   -15.9550 C.3          1 HC21001   0.0000
    15 C15        -24.9540     4.8020   -14.6480 C.3          1 HC21001   0.0000
    16 C16        -24.9720     6.2440   -15.1370 C.3          1 HC21001   0.0000
    17 C17        -25.1590     6.1910   -16.6690 C.3          1 HC21001   0.0000
    18 C18        -27.3130     4.7320   -16.6730 C.3          1 HC21001   0.0000
    19 C19        -27.0360     0.3990   -17.5930 C.3          1 HC21001   0.0000
    20 C20        -25.7890     7.4640   -17.3070 C.3          1 HC21001   0.0000
    21 C21        -25.9610     7.3770   -18.8310 C.3          1 HC21001   0.0000
    22 C22        -24.8960     8.7040   -17.0590 C.3          1 HC21001   0.0000
    23 C23        -23.4080     8.4850   -17.4070 C.3          1 HC21001   0.0000
    24 C24        -22.5410     9.7000   -17.0830 C.3          1 HC21001   0.0000
    25 C25        -22.2950     9.8490   -15.5740 C.3          1 HC21001   0.0000
    26 C26        -21.1250     9.0270   -15.0090 C.3          1 HC21001   0.0000
    27 C27        -22.1430    11.3210   -15.2400 C.3          1 HC21001   0.0000
    28 O1         -24.3190    -3.7730   -17.6010 O.3          1 HC21001   0.0000
    29 O2         -27.0560     7.6930   -16.6400 O.3          1 HC21001   0.0000
    30 H1         -25.5767     0.0630   -19.5696 H            1 HC21001   0.0000
    31 H2         -24.0550     0.2824   -19.0189 H            1 HC21001   0.0000
    32 H3         -23.9779    -1.8685   -19.5597 H            1 HC21001   0.0000
    33 H4         -25.5455    -2.1254   -19.1811 H            1 HC21001   0.0000
    34 H5         -23.3201    -2.0705   -17.3732 H            1 HC21001   0.0000
    35 H6         -24.8009    -2.2337   -15.5217 H            1 HC21001   0.0000
    36 H7         -26.0841    -2.0964   -16.5223 H            1 HC21001   0.0000
    37 H8         -23.9803    -0.3447   -14.5847 H            1 HC21001   0.0000
    38 H9         -23.6840     2.1167   -14.7762 H            1 HC21001   0.0000
    39 H10        -25.0971     1.8240   -14.0119 H            1 HC21001   0.0000
    40 H11        -26.3282     2.4268   -15.7826 H            1 HC21001   0.0000
    41 H12        -24.0518     1.9490   -17.4816 H            1 HC21001   0.0000
    42 H13        -26.6229     2.6055   -18.5376 H            1 HC21001   0.0000
    43 H14        -25.2090     2.5240   -19.3506 H            1 HC21001   0.0000
    44 H15        -26.0870     4.7670   -19.0076 H            1 HC21001   0.0000
    45 H16        -24.5283     4.5558   -18.5690 H            1 HC21001   0.0000
    46 H17        -24.0562     4.0426   -16.3028 H            1 HC21001   0.0000
    47 H18        -24.1207     4.6066   -14.1309 H            1 HC21001   0.0000
    48 H19        -25.7529     4.6034   -14.0802 H            1 HC21001   0.0000
    49 H20        -24.1089     6.6954   -14.9106 H            1 HC21001   0.0000
    50 H21        -25.7294     6.7418   -14.7144 H            1 HC21001   0.0000
    51 H22        -24.2363     6.1292   -17.0496 H            1 HC21001   0.0000
    52 H23        -27.5132     5.0704   -15.7535 H            1 HC21001   0.0000
    53 H24        -27.8095     5.2807   -17.3456 H            1 HC21001   0.0000
    54 H25        -27.5987     3.7765   -16.7461 H            1 HC21001   0.0000
    55 H26        -27.4175     0.8001   -16.7602 H            1 HC21001   0.0000
    56 H27        -27.3643     0.9080   -18.3887 H            1 HC21001   0.0000
    57 H28        -27.3246    -0.5557   -17.6657 H            1 HC21001   0.0000
    58 H29        -26.3688     8.2251   -19.1694 H            1 HC21001   0.0000
    59 H30        -25.0679     7.2422   -19.2601 H            1 HC21001   0.0000
    60 H31        -26.5583     6.6071   -19.0556 H            1 HC21001   0.0000
    61 H32        -24.9600     8.9494   -16.0917 H            1 HC21001   0.0000
    62 H33        -25.2421     9.4577   -17.6177 H            1 HC21001   0.0000
    63 H34        -23.3336     8.2907   -18.3851 H            1 HC21001   0.0000
    64 H35        -23.0694     7.7022   -16.8850 H            1 HC21001   0.0000
    65 H36        -23.0009    10.5226   -17.4174 H            1 HC21001   0.0000
    66 H37        -21.6598     9.5996   -17.5449 H            1 HC21001   0.0000
    67 H38        -23.1229     9.5307   -15.1122 H            1 HC21001   0.0000
    68 H39        -21.0467     9.1909   -14.0256 H            1 HC21001   0.0000
    69 H40        -21.2911     8.0546   -15.1727 H            1 HC21001   0.0000
    70 H41        -20.2762     9.3009   -15.4612 H            1 HC21001   0.0000
    71 H42        -21.9825    11.4253   -14.2585 H            1 HC21001   0.0000
    72 H43        -21.3683    11.6995   -15.7465 H            1 HC21001   0.0000
    73 H44        -22.9781    11.8086   -15.4948 H            1 HC21001   0.0000
    74 H45        -24.6279    -4.0653   -18.5061 H            1 HC21001   0.0000
    75 H46        -27.4928     8.5063   -17.0243 H            1 HC21001   0.0000
@<TRIPOS>BOND
     1    1    2       1
     2    1   10       1
     3    2    3       1
     4    3    4       1
     5    3   28       1
     6    4    5       1
     7    5    6       2
     8    5   10       1
     9    6    7       1
    10    7    8       1
    11    8    9       1
    12    8   14       1
    13    9   10       1
    14    9   11       1
    15   10   19       1
    16   11   12       1
    17   12   13       1
    18   13   14       1
    19   13   17       1
    20   13   18       1
    21   14   15       1
    22   15   16       1
    23   16   17       1
    24   17   20       1
    25   20   21       1
    26   20   22       1
    27   20   29       1
    28   22   23       1
    29   23   24       1
    30   24   25       1
    31   25   26       1
    32   25   27       1
    33    1   30       1
    34    1   31       1
    35    2   32       1
    36    2   33       1
    37    3   34       1
    38    4   35       1
    39    4   36       1
    40    6   37       1
    41    7   38       1
    42    7   39       1
    43    8   40       1
    44    9   41       1
    45   11   42       1
    46   11   43       1
    47   12   44       1
    48   12   45       1
    49   14   46       1
    50   15   47       1
    51   15   48       1
    52   16   49       1
    53   16   50       1
    54   17   51       1
    55   18   52       1
    56   18   53       1
    57   18   54       1
    58   19   55       1
    59   19   56       1
    60   19   57       1
    61   21   58       1
    62   21   59       1
    63   21   60       1
    64   22   61       1
    65   22   62       1
    66   23   63       1
    67   23   64       1
    68   24   65       1
    69   24   66       1
    70   25   67       1
    71   26   68       1
    72   26   69       1
    73   26   70       1
    74   27   71       1
    75   27   72       1
    76   27   73       1
    77   28   74       1
    78   29   75       1
@<TRIPOS>SUBSTRUCTURE
     1 HC21001     1 GROUP             4 A     HC2     0 **** HC2 A1001
