@<TRIPOS>MOLECULE
1cdk_ANP_1_ligand
   44    46     1     0     0
SMALL
NO_CHARGES


@<TRIPOS>ATOM
     1 PG          73.7080    28.5090    30.8190 P.3          1 ANP400   0.0000
     2 O1G         73.4640    26.9890    30.8180 O.co2        1 ANP400   0.0000
     3 O2G         75.0790    28.9340    31.2000 O.co2        1 ANP400  -1.0000
     4 O3G         73.2330    29.1380    29.5960 O.co2        1 ANP400  -1.0000
     5 PB          71.6990    28.2690    32.9070 P.3          1 ANP400   0.0000
     6 O1B         70.4520    28.4060    32.1830 O.co2        1 ANP400   0.0000
     7 O2B         72.2120    26.9290    33.2560 O.co2        1 ANP400  -1.0000
     8 N3B         72.8480    29.1110    32.0680 N.3          1 ANP400   0.0000
     9 PA          72.6830    29.2860    35.3860 P.3          1 ANP400   0.0000
    10 O1A         72.6800    28.1990    36.3800 O.co2        1 ANP400   0.0000
    11 O2A         73.9770    29.6690    34.7210 O.co2        1 ANP400  -1.0000
    12 O3A         71.5280    29.0790    34.2850 O.3          1 ANP400   0.0000
    13 O5'         72.0920    30.5650    36.1560 O.3          1 ANP400   0.0000
    14 C5'         71.8310    31.7820    35.4420 C.3          1 ANP400   0.0000
    15 C4'         72.4350    32.9510    36.1900 C.3          1 ANP400   0.0000
    16 O4'         71.8270    33.0980    37.4870 O.3          1 ANP400   0.0000
    17 C3'         73.9220    32.7540    36.4570 C.3          1 ANP400   0.0000
    18 O3'         74.7270    33.1490    35.3510 O.3          1 ANP400   0.0000
    19 C2'         74.1540    33.6050    37.6720 C.3          1 ANP400   0.0000
    20 O2'         74.3010    34.9730    37.2660 O.3          1 ANP400   0.0000
    21 C1'         72.8380    33.4860    38.4360 C.3          1 ANP400   0.0000
    22 N9          72.9390    32.5290    39.5320 N.pl3        1 ANP400   0.0000
    23 C8          72.9970    31.1550    39.4770 C.2          1 ANP400   0.0000
    24 N7          73.2570    30.5960    40.6190 N.2          1 ANP400   0.0000
    25 C5          73.3300    31.6690    41.5060 C.ar         1 ANP400   0.0000
    26 C6          73.4950    31.7290    42.8930 C.ar         1 ANP400   0.0000
    27 N6          73.5880    30.6340    43.6550 N.pl3        1 ANP400   0.0000
    28 N1          73.5080    32.9610    43.4630 N.ar         1 ANP400   0.0000
    29 C2          73.3330    34.0360    42.6990 C.ar         1 ANP400   0.0000
    30 N3          73.1320    34.0970    41.3900 N.ar         1 ANP400   0.0000
    31 C4          73.1490    32.8500    40.8500 C.ar         1 ANP400   0.0000
    32 H3B         72.3801    29.9181    31.7078 H            1 ANP400   0.0000
    33 H5'1        70.8432    31.9142    35.3602 H            1 ANP400   0.0000
    34 H5'2        72.2365    31.7258    34.5296 H            1 ANP400   0.0000
    35 H4'         72.2999    33.7895    35.6621 H            1 ANP400   0.0000
    36 H3'         74.1004    31.7952    36.6782 H            1 ANP400   0.0000
    37 H6          75.6913    33.0023    35.5714 H            1 ANP400   0.0000
    38 H2'         74.9332    33.2865    38.2119 H            1 ANP400   0.0000
    39 H8          74.6956    35.0076    36.3478 H            1 ANP400   0.0000
    40 H1'         72.6010    34.3821    38.8113 H            1 ANP400   0.0000
    41 H10         72.8522    30.6355    38.6349 H            1 ANP400   0.0000
    42 H11         73.7056    30.7217    44.6442 H            1 ANP400   0.0000
    43 H12         73.5400    29.7275    43.2356 H            1 ANP400   0.0000
    44 H13         73.3562    34.9149    43.1755 H            1 ANP400   0.0000
@<TRIPOS>BOND
     1    1    2      ar
     2    1    3      ar
     3    1    4      ar
     4    1    8       1
     5    5    6      ar
     6    5    7      ar
     7    5    8       1
     8    5   12       1
     9    9   10      ar
    10    9   11      ar
    11    9   12       1
    12    9   13       1
    13   13   14       1
    14   14   15       1
    15   15   16       1
    16   15   17       1
    17   16   21       1
    18   17   18       1
    19   17   19       1
    20   19   20       1
    21   19   21       1
    22   21   22       1
    23   22   23       1
    24   22   31       1
    25   23   24       2
    26   24   25       1
    27   25   26      ar
    28   25   31      ar
    29   26   27       1
    30   26   28      ar
    31   28   29      ar
    32   29   30      ar
    33   30   31      ar
    34   29   44       1
    35   27   43       1
    36   27   42       1
    37    8   32       1
    38   23   41       1
    39   14   33       1
    40   14   34       1
    41   15   35       1
    42   17   36       1
    43   18   37       1
    44   19   38       1
    45   20   39       1
    46   21   40       1
@<TRIPOS>SUBSTRUCTURE
     1 ANP400      1 GROUP             4 A     ANP     0 **** ANP A 400
