@<TRIPOS>MOLECULE
5h8t_RTL_1_ligand
   51    51     1     0     0
SMALL
NO_CHARGES


@<TRIPOS>ATOM
     1 C1          14.5240    -5.7350   -15.6180 C.3          1 RTL201   0.0000
     2 C2          14.1100    -6.7660   -16.6480 C.3          1 RTL201   0.0000
     3 C3          13.8900    -6.1210   -17.9940 C.3          1 RTL201   0.0000
     4 C4          12.8240    -5.0240   -18.0990 C.3          1 RTL201   0.0000
     5 C5          12.9270    -4.1670   -16.8370 C.2          1 RTL201   0.0000
     6 C6          13.6580    -4.4460   -15.7650 C.2          1 RTL201   0.0000
     7 C7          13.7520    -3.3240   -14.7030 C.2          1 RTL201   0.0000
     8 C8          14.7830    -3.1810   -13.8380 C.2          1 RTL201   0.0000
     9 C9          14.8340    -2.0320   -12.8360 C.2          1 RTL201   0.0000
    10 C10         15.9470    -1.9990   -12.0870 C.2          1 RTL201   0.0000
    11 C11         16.2060    -0.9790   -10.9910 C.2          1 RTL201   0.0000
    12 C12         17.3500    -1.0710   -10.2830 C.2          1 RTL201   0.0000
    13 C13         17.6130    -0.2030    -9.0810 C.2          1 RTL201   0.0000
    14 C14         18.6140    -0.6170    -8.2830 C.2          1 RTL201   0.0000
    15 C15         18.9510    -0.0900    -6.9080 C.3          1 RTL201   0.0000
    16 O1          18.5890    -1.2080    -6.0600 O.3          1 RTL201   0.0000
    17 C16         15.9920    -5.4150   -15.9040 C.3          1 RTL201   0.0000
    18 C17         14.3490    -6.3840   -14.2550 C.3          1 RTL201   0.0000
    19 C18         12.0180    -2.9470   -16.9030 C.3          1 RTL201   0.0000
    20 C19         13.7510    -0.9770   -12.8160 C.3          1 RTL201   0.0000
    21 C20         16.7040     0.9580    -8.7660 C.3          1 RTL201   0.0000
    22 H1          13.2609    -7.2031   -16.3513 H            1 RTL201   0.0000
    23 H2          14.8295    -7.4558   -16.7288 H            1 RTL201   0.0000
    24 H3          13.6348    -6.8462   -18.6335 H            1 RTL201   0.0000
    25 H4          14.7605    -5.7182   -18.2769 H            1 RTL201   0.0000
    26 H5          11.9146    -5.4354   -18.1599 H            1 RTL201   0.0000
    27 H6          12.9904    -4.4616   -18.9090 H            1 RTL201   0.0000
    28 H7          13.0035    -2.6628   -14.6528 H            1 RTL201   0.0000
    29 H8          15.5302    -3.8453   -13.8562 H            1 RTL201   0.0000
    30 H9          16.6498    -2.6888   -12.2610 H            1 RTL201   0.0000
    31 H10         15.5429    -0.2556   -10.7990 H            1 RTL201   0.0000
    32 H11         18.0433    -1.7345   -10.5642 H            1 RTL201   0.0000
    33 H12         19.1953    -1.3497    -8.6369 H            1 RTL201   0.0000
    34 H13         18.4113     0.7226    -6.6880 H            1 RTL201   0.0000
    35 H14         19.9245     0.1251    -6.8298 H            1 RTL201   0.0000
    36 H15         18.7708    -0.9744    -5.1048 H            1 RTL201   0.0000
    37 H16         16.3187    -4.7344   -15.2482 H            1 RTL201   0.0000
    38 H17         16.5376    -6.2487   -15.8189 H            1 RTL201   0.0000
    39 H18         16.0795    -5.0527   -16.8319 H            1 RTL201   0.0000
    40 H19         14.6122    -5.7355   -13.5408 H            1 RTL201   0.0000
    41 H20         13.3920    -6.6461   -14.1310 H            1 RTL201   0.0000
    42 H21         14.9277    -7.1975   -14.1964 H            1 RTL201   0.0000
    43 H22         12.1138    -2.4141   -16.0623 H            1 RTL201   0.0000
    44 H23         12.2750    -2.3819   -17.6870 H            1 RTL201   0.0000
    45 H24         11.0684    -3.2439   -17.0031 H            1 RTL201   0.0000
    46 H25         13.9496    -0.3090   -12.0989 H            1 RTL201   0.0000
    47 H26         13.7193    -0.5150   -13.7023 H            1 RTL201   0.0000
    48 H27         12.8679    -1.4093   -12.6336 H            1 RTL201   0.0000
    49 H28         17.0267     1.4193    -7.9396 H            1 RTL201   0.0000
    50 H29         16.7088     1.6022    -9.5308 H            1 RTL201   0.0000
    51 H30         15.7736     0.6225    -8.6187 H            1 RTL201   0.0000
@<TRIPOS>BOND
     1    1    2       1
     2    1    6       1
     3    1   17       1
     4    1   18       1
     5    2    3       1
     6    3    4       1
     7    4    5       1
     8    5    6       2
     9    5   19       1
    10    6    7       1
    11    7    8       2
    12    8    9       1
    13    9   10       2
    14    9   20       1
    15   10   11       1
    16   11   12       2
    17   12   13       1
    18   13   14       2
    19   13   21       1
    20   14   15       1
    21   15   16       1
    22    2   22       1
    23    2   23       1
    24    3   24       1
    25    3   25       1
    26    4   26       1
    27    4   27       1
    28    7   28       1
    29    8   29       1
    30   10   30       1
    31   11   31       1
    32   12   32       1
    33   14   33       1
    34   15   34       1
    35   15   35       1
    36   16   36       1
    37   17   37       1
    38   17   38       1
    39   17   39       1
    40   18   40       1
    41   18   41       1
    42   18   42       1
    43   19   43       1
    44   19   44       1
    45   19   45       1
    46   20   46       1
    47   20   47       1
    48   20   48       1
    49   21   49       1
    50   21   50       1
    51   21   51       1
@<TRIPOS>SUBSTRUCTURE
     1 RTL201      1 GROUP             4 A     RTL     0 **** RTL A 201
