@<TRIPOS>MOLECULE
2ww4_ADP_1_ligand
   39    41     1     0     0
SMALL
NO_CHARGES


@<TRIPOS>ATOM
     1 PB          23.0770    39.7730     0.2910 P.3          1 ADP1284   0.0000
     2 O1B         22.2020    40.9320     0.7130 O.co2        1 ADP1284   0.0000
     3 O2B         22.6940    38.4460     0.9190 O.co2        1 ADP1284  -1.0000
     4 O3B         24.5610    40.0920     0.3330 O.co2        1 ADP1284  -1.0000
     5 PA          23.9570    39.1980    -2.2810 P.3          1 ADP1284   0.0000
     6 O1A         24.8070    40.4470    -2.3170 O.co2        1 ADP1284   0.0000
     7 O2A         23.4120    38.6500    -3.5800 O.co2        1 ADP1284  -1.0000
     8 O3A         22.7540    39.5430    -1.2740 O.3          1 ADP1284   0.0000
     9 O5'         24.7200    38.0060    -1.4940 O.3          1 ADP1284   0.0000
    10 C5'         25.1300    36.8100    -2.1620 C.3          1 ADP1284   0.0000
    11 C4'         25.1290    35.6040    -1.2190 C.3          1 ADP1284   0.0000
    12 O4'         23.8070    35.2080    -0.8120 O.3          1 ADP1284   0.0000
    13 C3'         25.7400    34.4070    -1.9260 C.3          1 ADP1284   0.0000
    14 O3'         26.6040    33.7010    -1.0300 O.3          1 ADP1284   0.0000
    15 C2'         24.5630    33.5440    -2.3240 C.3          1 ADP1284   0.0000
    16 O2'         24.9240    32.1590    -2.3240 O.3          1 ADP1284   0.0000
    17 C1'         23.5090    33.8810    -1.2760 C.3          1 ADP1284   0.0000
    18 N9          22.1170    33.8350    -1.7980 N.pl3        1 ADP1284   0.0000
    19 C8          21.1790    32.9280    -1.4540 C.2          1 ADP1284   0.0000
    20 N7          20.0060    33.1720    -2.1000 N.2          1 ADP1284   0.0000
    21 C5          20.1790    34.2600    -2.8670 C.ar         1 ADP1284   0.0000
    22 C6          19.3470    35.0590    -3.8040 C.ar         1 ADP1284   0.0000
    23 N6          18.0530    34.7470    -4.0650 N.pl3        1 ADP1284   0.0000
    24 N1          19.9330    36.1210    -4.3990 N.ar         1 ADP1284   0.0000
    25 C2          21.2190    36.4590    -4.1680 C.ar         1 ADP1284   0.0000
    26 N3          22.0260    35.7810    -3.3310 N.ar         1 ADP1284   0.0000
    27 C4          21.5740    34.6950    -2.6620 C.ar         1 ADP1284   0.0000
    28 H5'1        26.0545    36.9400    -2.5204 H            1 ADP1284   0.0000
    29 H5'2        24.5014    36.6300    -2.9186 H            1 ADP1284   0.0000
    30 H4'         25.6724    35.8199    -0.4078 H            1 ADP1284   0.0000
    31 H3'         26.2453    34.7021    -2.7369 H            1 ADP1284   0.0000
    32 H5          26.2759    32.7627    -0.9206 H            1 ADP1284   0.0000
    33 H2'         24.2376    33.8104    -3.2313 H            1 ADP1284   0.0000
    34 H7          25.2649    31.9034    -3.2287 H            1 ADP1284   0.0000
    35 H1'         23.5924    33.2415    -0.5117 H            1 ADP1284   0.0000
    36 H9          21.3260    32.1769    -0.8104 H            1 ADP1284   0.0000
    37 H10         17.5222    35.3068    -4.7013 H            1 ADP1284   0.0000
    38 H11         17.6298    33.9572    -3.6211 H            1 ADP1284   0.0000
    39 H12         21.5921    37.2554    -4.6440 H            1 ADP1284   0.0000
@<TRIPOS>BOND
     1    1    2      ar
     2    1    3      ar
     3    1    4      ar
     4    1    8       1
     5    5    6      ar
     6    5    7      ar
     7    5    8       1
     8    5    9       1
     9    9   10       1
    10   10   11       1
    11   11   12       1
    12   11   13       1
    13   12   17       1
    14   13   14       1
    15   13   15       1
    16   15   16       1
    17   15   17       1
    18   17   18       1
    19   18   19       1
    20   18   27       1
    21   19   20       2
    22   20   21       1
    23   21   22      ar
    24   21   27      ar
    25   22   23       1
    26   22   24      ar
    27   24   25      ar
    28   25   26      ar
    29   26   27      ar
    30   25   39       1
    31   23   38       1
    32   23   37       1
    33   10   28       1
    34   10   29       1
    35   11   30       1
    36   13   31       1
    37   14   32       1
    38   15   33       1
    39   16   34       1
    40   17   35       1
    41   19   36       1
@<TRIPOS>SUBSTRUCTURE
     1 ADP1284     1 GROUP             4 A     ADP     0 **** ADP A1284
