@<TRIPOS>MOLECULE
3zgz_84T_2_ligand
   55    57     1     0     0
SMALL
NO_CHARGES


@<TRIPOS>ATOM
     1 O1P        -49.5780    32.8140   -40.5380 O.co2        1 84T1862   0.0000
     2 P          -49.2650    32.3330   -39.1350 P.3          1 84T1862   0.0000
     3 O2P        -48.4740    31.0750   -38.8590 O.co2        1 84T1862  -1.0000
     4 N          -48.5650    33.5690   -38.2610 N.am         1 84T1862   0.0000
     5 C          -48.3510    33.4270   -36.9370 C.2          1 84T1862   0.0000
     6 CA         -47.7430    34.6300   -36.2520 C.3          1 84T1862   0.0000
     7 CB         -48.7820    35.2580   -35.3520 C.3          1 84T1862   0.0000
     8 CG         -48.2900    36.4810   -34.5680 C.3          1 84T1862   0.0000
     9 CD2        -47.1770    36.1610   -33.5650 C.3          1 84T1862   0.0000
    10 CD1        -49.4510    37.1510   -33.8390 C.3          1 84T1862   0.0000
    11 OHB        -49.8670    35.6260   -36.2170 O.3          1 84T1862   0.0000
    12 OH         -47.3690    35.6190   -37.2340 O.3          1 84T1862   0.0000
    13 O          -48.6190    32.4100   -36.2910 O.2          1 84T1862   0.0000
    14 O5'        -50.7020    32.1310   -38.4790 O.3          1 84T1862   0.0000
    15 C5'        -51.5780    33.2490   -38.4230 C.3          1 84T1862   0.0000
    16 C4'        -52.6310    33.0770   -37.3370 C.3          1 84T1862   0.0000
    17 C3'        -52.0420    32.6290   -35.9950 C.3          1 84T1862   0.0000
    18 C2'        -53.1730    31.8160   -35.3980 C.3          1 84T1862   0.0000
    19 O2'        -52.7470    30.8010   -34.4970 O.3          1 84T1862   0.0000
    20 O4'        -53.5750    32.0890   -37.7230 O.3          1 84T1862   0.0000
    21 C1'        -53.8570    31.2360   -36.6010 C.3          1 84T1862   0.0000
    22 N9         -53.3800    29.8850   -36.9750 N.pl3        1 84T1862   0.0000
    23 C4         -54.1410    28.8040   -36.8390 C.ar         1 84T1862   0.0000
    24 N3         -55.3950    28.6430   -36.3350 N.ar         1 84T1862   0.0000
    25 C2         -55.9460    27.4180   -36.3100 C.ar         1 84T1862   0.0000
    26 C8         -52.2150    29.5130   -37.5620 C.2          1 84T1862   0.0000
    27 N7         -52.2390    28.1720   -37.7660 N.2          1 84T1862   0.0000
    28 C5         -53.4270    27.7150   -37.3310 C.ar         1 84T1862   0.0000
    29 C6         -54.0370    26.4710   -37.2880 C.ar         1 84T1862   0.0000
    30 N1         -55.2810    26.3460   -36.7700 N.ar         1 84T1862   0.0000
    31 N6         -53.4030    25.3750   -37.7410 N.pl3        1 84T1862   0.0000
    32 H1         -48.3032    34.4180   -38.7200 H            1 84T1862   0.0000
    33 HA         -46.9439    34.3553   -35.7172 H            1 84T1862   0.0000
    34 HB         -49.1060    34.5688   -34.7040 H            1 84T1862   0.0000
    35 HG         -47.9252    37.1383   -35.2275 H            1 84T1862   0.0000
    36 HD21       -46.9046    36.9983   -33.0910 H            1 84T1862   0.0000
    37 HD22       -47.5104    35.4941   -32.8986 H            1 84T1862   0.0000
    38 HD23       -46.3895    35.7817   -34.0507 H            1 84T1862   0.0000
    39 HD11       -49.1135    37.9452   -33.3337 H            1 84T1862   0.0000
    40 HD12       -50.1366    37.4461   -34.5045 H            1 84T1862   0.0000
    41 HD13       -49.8638    36.5008   -33.2011 H            1 84T1862   0.0000
    42 HHB        -49.5399    36.2741   -36.9048 H            1 84T1862   0.0000
    43 HH         -46.5829    36.1393   -36.9004 H            1 84T1862   0.0000
    44 H5'1       -52.0354    33.3483   -39.3067 H            1 84T1862   0.0000
    45 H5'2       -51.0433    34.0717   -38.2301 H            1 84T1862   0.0000
    46 H4'        -53.1073    33.9467   -37.2073 H            1 84T1862   0.0000
    47 H3'1       -51.8175    33.4145   -35.4182 H            1 84T1862   0.0000
    48 H3'2       -51.2245    32.0685   -36.1278 H            1 84T1862   0.0000
    49 H2'        -53.8049    32.4303   -34.9254 H            1 84T1862   0.0000
    50 H19        -51.8396    30.4770   -34.7647 H            1 84T1862   0.0000
    51 H1'        -54.8440    31.2090   -36.4426 H            1 84T1862   0.0000
    52 H21        -56.8686    27.3024   -35.9420 H            1 84T1862   0.0000
    53 H22        -51.4629    30.1259   -37.8043 H            1 84T1862   0.0000
    54 H23        -53.8557    24.4841   -37.7035 H            1 84T1862   0.0000
    55 H24        -52.4788    25.4508   -38.1153 H            1 84T1862   0.0000
@<TRIPOS>BOND
     1    1    2      ar
     2    2    3      ar
     3    2    4       1
     4    2   14       1
     5    4    5      am
     6    5    6       1
     7    5   13       2
     8    6    7       1
     9    6   12       1
    10    7    8       1
    11    7   11       1
    12    8    9       1
    13    8   10       1
    14   14   15       1
    15   15   16       1
    16   16   17       1
    17   16   20       1
    18   17   18       1
    19   18   19       1
    20   18   21       1
    21   20   21       1
    22   21   22       1
    23   22   23       1
    24   22   26       1
    25   23   24      ar
    26   23   28      ar
    27   24   25      ar
    28   25   30      ar
    29   26   27       2
    30   27   28       1
    31   28   29      ar
    32   29   30      ar
    33   29   31       1
    34   31   55       1
    35    4   32       1
    36    6   33       1
    37    7   34       1
    38    8   35       1
    39    9   36       1
    40    9   37       1
    41    9   38       1
    42   10   39       1
    43   10   40       1
    44   10   41       1
    45   11   42       1
    46   12   43       1
    47   15   44       1
    48   15   45       1
    49   16   46       1
    50   17   47       1
    51   17   48       1
    52   18   49       1
    53   19   50       1
    54   21   51       1
    55   25   52       1
    56   26   53       1
    57   31   54       1
@<TRIPOS>SUBSTRUCTURE
     1 84T1862     1 GROUP             4 D     84T     0 **** 84T D1862
