@<TRIPOS>MOLECULE
4c3x_FAD_2_ligand
   84    89     1     0     0
SMALL
NO_CHARGES


@<TRIPOS>ATOM
     1 PA         -29.6290   -18.8940    61.9920 P.3          1 FAD551   0.0000
     2 O1A        -28.7210   -18.0780    61.2450 O.co2        1 FAD551   0.0000
     3 O2A        -30.5990   -19.7520    61.1990 O.co2        1 FAD551  -1.0000
     4 O5B        -30.4620   -18.0790    62.9440 O.3          1 FAD551   0.0000
     5 C5B        -29.7660   -17.2690    63.9280 C.3          1 FAD551   0.0000
     6 C4B        -30.5910   -16.0070    64.1650 C.3          1 FAD551   0.0000
     7 O4B        -30.2050   -15.4290    65.4160 O.3          1 FAD551   0.0000
     8 C3B        -30.3090   -14.9690    63.0630 C.3          1 FAD551   0.0000
     9 O3B        -31.5720   -14.3870    62.6230 O.3          1 FAD551   0.0000
    10 C2B        -29.5030   -13.8950    63.8290 C.3          1 FAD551   0.0000
    11 O2B        -29.8140   -12.5360    63.4270 O.3          1 FAD551   0.0000
    12 C1B        -30.0530   -14.0610    65.2760 C.3          1 FAD551   0.0000
    13 N9A        -29.1160   -13.4790    66.3040 N.pl3        1 FAD551   0.0000
    14 C8A        -27.7790   -13.3800    66.3680 C.2          1 FAD551   0.0000
    15 N7A        -27.4410   -12.7380    67.5060 N.2          1 FAD551   0.0000
    16 C5A        -28.5560   -12.4100    68.1430 C.ar         1 FAD551   0.0000
    17 C6A        -28.7640   -11.7860    69.3160 C.ar         1 FAD551   0.0000
    18 N6A        -27.6730   -11.3260    69.9810 N.pl3        1 FAD551   0.0000
    19 N1A        -29.9920   -11.5420    69.7560 N.ar         1 FAD551   0.0000
    20 C2A        -31.0950   -12.0150    69.0000 C.ar         1 FAD551   0.0000
    21 N3A        -30.8340   -12.6750    67.8150 N.ar         1 FAD551   0.0000
    22 C4A        -29.5910   -12.8650    67.4040 C.ar         1 FAD551   0.0000
    23 N1         -28.6850   -26.4820    56.3200 N.2          1 FAD551   0.0000
    24 C2         -29.6080   -27.5170    56.3470 C.2          1 FAD551   0.0000
    25 O2         -29.7720   -28.1530    57.3750 O.2          1 FAD551   0.0000
    26 N3         -30.3290   -27.8040    55.2200 N.pl3        1 FAD551   0.0000
    27 C4         -30.1110   -27.1340    54.0230 C.2          1 FAD551   0.0000
    28 O4         -30.8340   -27.4510    53.0500 O.2          1 FAD551   0.0000
    29 C4X        -29.1770   -26.0850    54.0030 C.2          1 FAD551   0.0000
    30 N5         -28.9100   -25.3960    52.8720 N.2          1 FAD551   0.0000
    31 C5X        -28.2090   -24.2290    52.9300 C.ar         1 FAD551   0.0000
    32 C6         -28.1470   -23.3930    51.7950 C.ar         1 FAD551   0.0000
    33 C7         -27.5270   -22.1210    51.8560 C.ar         1 FAD551   0.0000
    34 C7M        -27.4920   -21.2590    50.7290 C.3          1 FAD551   0.0000
    35 C8         -26.9720   -21.6780    53.0650 C.ar         1 FAD551   0.0000
    36 C8M        -26.3220   -20.4130    53.1300 C.3          1 FAD551   0.0000
    37 C9         -27.0120   -22.5270    54.1760 C.ar         1 FAD551   0.0000
    38 C9A        -27.6070   -23.8120    54.1490 C.ar         1 FAD551   0.0000
    39 N10        -27.6220   -24.6800    55.2420 N.pl3        1 FAD551   0.0000
    40 C10        -28.4480   -25.7710    55.1810 C.2          1 FAD551   0.0000
    41 C1'        -26.9910   -24.3150    56.5560 C.3          1 FAD551   0.0000
    42 C2'        -28.0010   -23.7020    57.4760 C.3          1 FAD551   0.0000
    43 O2'        -28.7400   -22.7180    56.7920 O.3          1 FAD551   0.0000
    44 C3'        -27.3750   -23.0520    58.7390 C.3          1 FAD551   0.0000
    45 O3'        -26.2420   -23.7450    59.2090 O.3          1 FAD551   0.0000
    46 C4'        -28.4350   -23.1010    59.7770 C.3          1 FAD551   0.0000
    47 O4'        -29.5230   -22.3780    59.2250 O.3          1 FAD551   0.0000
    48 C5'        -28.0120   -22.4400    61.1290 C.3          1 FAD551   0.0000
    49 O5'        -29.1410   -22.2190    61.9490 O.3          1 FAD551   0.0000
    50 P          -29.0720   -21.3450    63.3140 P.3          1 FAD551   0.0000
    51 O1P        -27.8670   -21.8250    63.9740 O.co2        1 FAD551   0.0000
    52 O2P        -30.3790   -21.5760    63.8960 O.co2        1 FAD551  -1.0000
    53 O3P        -28.6610   -19.8590    62.7860 O.3          1 FAD551   0.0000
    54 H5B1       -28.8593   -17.0229    63.5855 H            1 FAD551   0.0000
    55 H5B2       -29.6722   -17.7791    64.7830 H            1 FAD551   0.0000
    56 H4B        -31.5649   -16.2335    64.1796 H            1 FAD551   0.0000
    57 H3B        -29.7891   -15.3588    62.3029 H            1 FAD551   0.0000
    58 H5         -32.0218   -13.9423    63.3975 H            1 FAD551   0.0000
    59 H2B        -28.5201   -14.0744    63.7871 H            1 FAD551   0.0000
    60 H7         -30.7835   -12.3536    63.5905 H            1 FAD551   0.0000
    61 H1B        -30.9458   -13.6163    65.3475 H            1 FAD551   0.0000
    62 H8A        -27.1373   -13.7259    65.6834 H            1 FAD551   0.0000
    63 H6A1       -27.7827   -10.8561    70.8569 H            1 FAD551   0.0000
    64 H6A2       -26.7599   -11.4572    69.5948 H            1 FAD551   0.0000
    65 H2A        -32.0335   -11.8748    69.3155 H            1 FAD551   0.0000
    66 H13        -31.0313   -28.5148    55.2592 H            1 FAD551   0.0000
    67 H14        -28.5475   -23.7038    50.9330 H            1 FAD551   0.0000
    68 H7M1       -27.0141   -20.4143    50.9701 H            1 FAD551   0.0000
    69 H7M2       -27.0109   -21.7114    49.9781 H            1 FAD551   0.0000
    70 H7M3       -28.4263   -21.0439    50.4447 H            1 FAD551   0.0000
    71 H8M1       -25.9877   -20.2574    54.0595 H            1 FAD551   0.0000
    72 H8M2       -25.5518   -20.4009    52.4924 H            1 FAD551   0.0000
    73 H8M3       -26.9700   -19.6922    52.8838 H            1 FAD551   0.0000
    74 H21        -26.6004   -22.2113    55.0310 H            1 FAD551   0.0000
    75 H1'1       -26.2531   -23.6595    56.3950 H            1 FAD551   0.0000
    76 H1'2       -26.6175   -25.1395    56.9811 H            1 FAD551   0.0000
    77 H2'        -28.6319   -24.4191    57.7720 H            1 FAD551   0.0000
    78 H25        -29.4117   -22.3139    57.4129 H            1 FAD551   0.0000
    79 H3'        -27.1340   -22.1009    58.5460 H            1 FAD551   0.0000
    80 H27        -25.4212   -23.3768    58.7724 H            1 FAD551   0.0000
    81 H4'        -28.7071   -24.0500    59.9364 H            1 FAD551   0.0000
    82 H29        -30.2819   -22.3691    59.8761 H            1 FAD551   0.0000
    83 H5'1       -27.5656   -21.5650    60.9416 H            1 FAD551   0.0000
    84 H5'2       -27.3735   -23.0448    61.6049 H            1 FAD551   0.0000
@<TRIPOS>BOND
     1    1    2      ar
     2    1    3      ar
     3    1    4       1
     4    1   53       1
     5    4    5       1
     6    5    6       1
     7    6    7       1
     8    6    8       1
     9    7   12       1
    10    8    9       1
    11    8   10       1
    12   10   11       1
    13   10   12       1
    14   12   13       1
    15   13   14       1
    16   13   22       1
    17   14   15       2
    18   15   16       1
    19   16   17      ar
    20   16   22      ar
    21   17   18       1
    22   17   19      ar
    23   19   20      ar
    24   20   21      ar
    25   21   22      ar
    26   23   24       1
    27   23   40       2
    28   24   25       2
    29   24   26       1
    30   26   27       1
    31   27   28       2
    32   27   29       1
    33   29   30       2
    34   29   40       1
    35   30   31       1
    36   31   32      ar
    37   31   38      ar
    38   32   33      ar
    39   33   34       1
    40   33   35      ar
    41   35   36       1
    42   35   37      ar
    43   37   38      ar
    44   38   39       1
    45   39   40       1
    46   39   41       1
    47   41   42       1
    48   42   43       1
    49   42   44       1
    50   44   45       1
    51   44   46       1
    52   46   47       1
    53   46   48       1
    54   48   49       1
    55   49   50       1
    56   50   51      ar
    57   50   52      ar
    58   50   53       1
    59   48   84       1
    60    5   54       1
    61    5   55       1
    62    6   56       1
    63    8   57       1
    64    9   58       1
    65   10   59       1
    66   11   60       1
    67   12   61       1
    68   14   62       1
    69   18   63       1
    70   18   64       1
    71   20   65       1
    72   26   66       1
    73   32   67       1
    74   34   68       1
    75   34   69       1
    76   34   70       1
    77   36   71       1
    78   36   72       1
    79   36   73       1
    80   37   74       1
    81   41   75       1
    82   41   76       1
    83   42   77       1
    84   43   78       1
    85   44   79       1
    86   45   80       1
    87   46   81       1
    88   47   82       1
    89   48   83       1
@<TRIPOS>SUBSTRUCTURE
     1 FAD551      1 GROUP             4 B     FAD     0 **** FAD B 551
