@<TRIPOS>MOLECULE
1mqw_ADV_1_ligand
   41    43     1     0     0
SMALL
NO_CHARGES


@<TRIPOS>ATOM
     1 PA          22.6460    22.8890     2.5620 P.3          1 ADV301   0.0000
     2 O5'         23.9740    23.3520     1.8640 O.3          1 ADV301   0.0000
     3 C5'         24.5370    22.6180     0.7480 C.3          1 ADV301   0.0000
     4 C4'         25.6340    23.2000     0.3190 C.3          1 ADV301   0.0000
     5 O4'         26.6580    23.2580     1.1530 O.3          1 ADV301   0.0000
     6 C3'         26.4970    22.1140    -0.4380 C.3          1 ADV301   0.0000
     7 O3'         25.9360    22.0410    -1.8940 O.3          1 ADV301   0.0000
     8 C2'         27.8380    22.4850    -0.3910 C.3          1 ADV301   0.0000
     9 O2'         28.1450    23.3890    -1.2720 O.3          1 ADV301   0.0000
    10 C1'         27.9880    22.9620     1.1110 C.3          1 ADV301   0.0000
    11 N9          28.7620    22.2990     2.1140 N.pl3        1 ADV301   0.0000
    12 C8          28.4290    20.9970     2.5420 C.2          1 ADV301   0.0000
    13 N7          29.2980    20.5590     3.5030 N.2          1 ADV301   0.0000
    14 C5          30.2020    21.5580     3.7130 C.ar         1 ADV301   0.0000
    15 C6          31.2850    21.6540     4.5670 C.ar         1 ADV301   0.0000
    16 N6          31.5460    20.5850     5.3650 N.pl3        1 ADV301   0.0000
    17 N1          32.0930    22.8210     4.6020 N.ar         1 ADV301   0.0000
    18 C2          31.8260    23.9350     3.7750 C.ar         1 ADV301   0.0000
    19 N3          30.7110    23.8400     2.8990 N.ar         1 ADV301   0.0000
    20 C4          29.8980    22.6900     2.8510 C.ar         1 ADV301   0.0000
    21 CX          22.8960    21.8270     3.7470 C.3          1 ADV301   0.0000
    22 PB          23.3750    20.3290     3.9100 P.3          1 ADV301   0.0000
    23 O1B         24.7880    20.1340     3.3740 O.co2        1 ADV301   0.0000
    24 OR5         22.3960    19.4070     3.1410 O.co2        1 ADV301  -1.0000
    25 O2A         21.7110    22.1690     1.4440 O.co2        1 ADV301   0.0000
    26 O2B         23.3590    19.8830     5.3630 O.co2        1 ADV301  -1.0000
    27 O1A         22.1280    24.2620     3.1120 O.co2        1 ADV301  -1.0000
    28 H5'1        23.8690    22.5868     0.0045 H            1 ADV301   0.0000
    29 H5'2        24.7523    21.6868     1.0420 H            1 ADV301   0.0000
    30 H4'         25.4786    24.0394    -0.2019 H            1 ADV301   0.0000
    31 H3'         26.3813    21.2266     0.0082 H            1 ADV301   0.0000
    32 H5          26.0637    21.1170    -2.2545 H            1 ADV301   0.0000
    33 H2'         28.4080    21.6765    -0.5375 H            1 ADV301   0.0000
    34 H7          27.5559    23.2869    -2.0736 H            1 ADV301   0.0000
    35 H1'         28.4255    23.8576     1.0305 H            1 ADV301   0.0000
    36 H9          27.6594    20.4646     2.1895 H            1 ADV301   0.0000
    37 H10         32.3196    20.6108     5.9982 H            1 ADV301   0.0000
    38 H11         30.9645    19.7728     5.3189 H            1 ADV301   0.0000
    39 H12         32.3972    24.7553     3.8048 H            1 ADV301   0.0000
    40 HX1         22.0028    21.8068     4.1962 H            1 ADV301   0.0000
    41 HX2         23.5492    22.3153     4.3257 H            1 ADV301   0.0000
@<TRIPOS>BOND
     1    1    2       1
     2    1   21       1
     3    1   25      ar
     4    1   27      ar
     5    2    3       1
     6    3    4       1
     7    4    5       1
     8    4    6       1
     9    5   10       1
    10    6    7       1
    11    6    8       1
    12    8    9       1
    13    8   10       1
    14   10   11       1
    15   11   12       1
    16   11   20       1
    17   12   13       2
    18   13   14       1
    19   14   15      ar
    20   14   20      ar
    21   15   16       1
    22   15   17      ar
    23   17   18      ar
    24   18   19      ar
    25   19   20      ar
    26   21   22       1
    27   22   23      ar
    28   22   24      ar
    29   22   26      ar
    30    3   28       1
    31    3   29       1
    32    4   30       1
    33    6   31       1
    34    7   32       1
    35    8   33       1
    36    9   34       1
    37   10   35       1
    38   12   36       1
    39   16   37       1
    40   16   38       1
    41   18   39       1
    42   21   40       1
    43   21   41       1
@<TRIPOS>SUBSTRUCTURE
     1 ADV301      1 GROUP             4 A     ADV     0 **** ADV A 301
