@<TRIPOS>MOLECULE
./coach420/1zt9/ligand.pdb
 29 31 0 0 0
SMALL
GASTEIGER

@<TRIPOS>ATOM
      1  N         84.4820   65.3210   -8.2580 N.3   1001  TRP1001    -0.1205
      2  CA        84.0620   66.6440   -8.7190 C.3   1001  TRP1001     0.1984
      3  C         85.1260   67.6670   -8.3610 C.2   1001  TRP1001     0.3822
      4  O         85.9340   67.3500   -7.4910 O.co2 1001  TRP1001    -0.2440
      5  CB        82.7500   67.0510   -8.0620 C.3   1001  TRP1001     0.0546
      6  CG        81.8990   67.9470   -8.8820 C.2   1001  TRP1001    -0.0167
      7  CD1       81.8330   69.3090   -8.8140 C.3   1001  TRP1001     0.1477
      8  CD2       80.9430   67.5530   -9.8680 C.ar  1001  TRP1001     0.0113
      9  NE1       80.9200   69.7850   -9.7230 N.2   1001  TRP1001    -0.2659
     10  CE2       80.3510   68.7260  -10.3740 C.ar  1001  TRP1001     0.0758
     11  CE3       80.5380   66.3260  -10.3970 C.ar  1001  TRP1001     0.0009
     12  CZ2       79.3740   68.7050  -11.3660 C.ar  1001  TRP1001     0.0187
     13  CZ3       79.5610   66.3170  -11.3880 C.ar  1001  TRP1001     0.0001
     14  CH2       78.9900   67.4970  -11.8450 C.ar  1001  TRP1001     0.0015
     15  OXT       85.1280   68.7600   -8.9360 O.co2 1001  TRP1001    -0.2440
     16  CA        72.8810   69.0400    8.7120 C.3   901  TRP901      0.1185
     17  C         72.2870   70.4160    8.3090 C.2   901  TRP901      0.3652
     18  O         71.3810   70.5120    7.4780 O.co2 901  TRP901     -0.2456
     19  CB        74.2450   68.8210    8.0690 C.3   901  TRP901      0.0361
     20  CG        75.4010   69.3050    8.8990 C.2   901  TRP901     -0.0153
     21  CD1       75.9640   70.5340    8.8550 C.2   901  TRP901      0.0906
     22  CD2       76.1100   68.5760    9.9200 C.3   901  TRP901      0.0819
     23  NE1       76.9820   70.6230    9.7750 N.2   901  TRP901     -0.2482
     24  CE2       77.1040   69.4280   10.4280 C.2   901  TRP901      0.0665
     25  CE3       76.0300   67.2730   10.4280 C.2   901  TRP901     -0.0164
     26  CZ2       77.9860   69.0440   11.4490 C.2   901  TRP901      0.0153
     27  CZ3       76.9310   66.8870   11.4440 C.2   901  TRP901     -0.0038
     28  CH2       77.9010   67.7650   11.9150 C.2   901  TRP901      0.0009
     29  OXT       72.6650   71.4780    8.8030 O.co2 901  TRP901     -0.2456
@<TRIPOS>BOND
     1     1     2    1
     2     2     3    1
     3     2     5    1
     4     3    15   ar
     5     3     4   ar
     6     5     6    1
     7     6     8    2
     8     6     7    1
     9     7     9    1
    10     8    11   ar
    11     8    10   ar
    12     9    10    2
    13    10    12   ar
    14    11    13   ar
    15    12    14   ar
    16    13    14   ar
    17    16    19    1
    18    16    17    1
    19    17    18   ar
    20    17    29   ar
    21    19    20    1
    22    20    21    2
    23    20    22    1
    24    21    23    1
    25    22    24    1
    26    22    25    1
    27    23    24    2
    28    24    26    1
    29    25    27    2
    30    26    28    2
    31    27    28    1
