@<TRIPOS>MOLECULE
1ld7_U66_1_ligand
   58    63     1     0     0
SMALL
NO_CHARGES


@<TRIPOS>ATOM
     1 C           15.4840   134.7230    -3.5960 C.ar         1 U661003   0.0000
     2 C1          15.8530   136.0910    -3.8710 C.ar         1 U661003   0.0000
     3 C2          14.1660   134.2280    -3.9540 C.ar         1 U661003   0.0000
     4 C3          16.3520   133.8080    -2.9790 C.ar         1 U661003   0.0000
     5 N           17.1620   136.6060    -3.5460 N.am         1 U661003   0.0000
     6 C4          14.8920   136.9410    -4.4960 C.ar         1 U661003   0.0000
     7 C5          13.7990   132.8670    -3.6870 C.ar         1 U661003   0.0000
     8 C6          13.2420   135.1050    -4.5740 C.ar         1 U661003   0.0000
     9 C7          16.0150   132.4470    -2.7110 C.ar         1 U661003   0.0000
    10 C8          17.5370   137.2590    -2.3550 C.2          1 U661003   0.0000
    11 C9          18.2950   136.4860    -4.4480 C.3          1 U661003   0.0000
    12 C10         13.6000   136.4490    -4.8400 C.ar         1 U661003   0.0000
    13 C11         14.7260   131.9730    -3.0710 C.ar         1 U661003   0.0000
    14 O           16.9350   131.5260    -2.1370 O.3          1 U661003   0.0000
    15 C12         19.0690   137.4730    -2.3930 C.3          1 U661003   0.0000
    16 O13         16.8270   137.5100    -1.4000 O.2          1 U661003   0.0000
    17 C14         19.4870   136.4930    -3.5110 C.3          1 U661003   0.0000
    18 C15         18.3230   131.8620    -2.1810 C.ar         1 U661003   0.0000
    19 N16         19.7250   137.1780    -1.0840 N.4          1 U661003   1.0000
    20 C17         19.1080   132.0530    -3.3940 C.ar         1 U661003   0.0000
    21 C18         18.9550   132.0180    -0.9140 C.ar         1 U661003   0.0000
    22 C19         19.4420   135.8650    -0.4440 C.3          1 U661003   0.0000
    23 C20         20.4770   132.4050    -3.2740 C.ar         1 U661003   0.0000
    24 C21         18.5190   131.8940    -4.7040 C.1          1 U661003   0.0000
    25 C22         20.3430   132.3640    -0.8160 C.ar         1 U661003   0.0000
    26 C23         20.2050   135.6780     0.8550 C.3          1 U661003   0.0000
    27 C24         21.0850   132.5610    -2.0050 C.ar         1 U661003   0.0000
    28 N25         17.9820   131.7600    -5.7230 N.1          1 U661003   0.0000
    29 C26         21.0630   132.5310     0.5020 C.3          1 U661003   0.0000
    30 C27         19.8860   134.4810     1.6960 C.2          1 U661003   0.0000
    31 N28         20.2520   133.1600     1.5410 N.pl3        1 U661003   0.0000
    32 C29         19.1280   134.4720     2.8420 C.2          1 U661003   0.0000
    33 C30         19.7040   132.4560     2.5870 C.2          1 U661003   0.0000
    34 NZ          19.0090   133.2280     3.4020 N.2          1 U661003   0.0000
    35 H1          17.2605   134.1289    -2.7113 H            1 U661003   0.0000
    36 H2          15.1280   137.8922    -4.6946 H            1 U661003   0.0000
    37 H3          12.8863   132.5419    -3.9344 H            1 U661003   0.0000
    38 H4          12.3326   134.7733    -4.8250 H            1 U661003   0.0000
    39 H5          18.3324   137.2589    -5.0814 H            1 U661003   0.0000
    40 H6          18.2516   135.6320    -4.9664 H            1 U661003   0.0000
    41 H7          12.9382   137.0599    -5.2744 H            1 U661003   0.0000
    42 H8          14.4700   131.0225    -2.8948 H            1 U661003   0.0000
    43 H9          19.2735   138.4116    -2.6709 H            1 U661003   0.0000
    44 H10         20.3079   136.8175    -3.9809 H            1 U661003   0.0000
    45 H11         19.6543   135.5795    -3.1401 H            1 U661003   0.0000
    46 H12         19.4412   137.8898    -0.4415 H            1 U661003   0.0000
    47 H13         18.4216   131.8839    -0.0788 H            1 U661003   0.0000
    48 H14         19.7026   135.1363    -1.0773 H            1 U661003   0.0000
    49 H15         18.4623   135.8056    -0.2524 H            1 U661003   0.0000
    50 H16         21.0223   132.5454    -4.1004 H            1 U661003   0.0000
    51 H17         20.0376   136.4883     1.4166 H            1 U661003   0.0000
    52 H18         21.1766   135.6276     0.6237 H            1 U661003   0.0000
    53 H19         22.0509   132.8136    -1.9480 H            1 U661003   0.0000
    54 H20         21.8735   133.0965     0.3491 H            1 U661003   0.0000
    55 H21         21.3433   131.6270     0.8249 H            1 U661003   0.0000
    56 H22         18.7055   135.2918     3.2284 H            1 U661003   0.0000
    57 H23         19.8188   131.4710     2.7159 H            1 U661003   0.0000
    58 H24         20.7132   137.2328    -1.2270 H            1 U661003   0.0000
@<TRIPOS>BOND
     1    1    2      ar
     2    1    3      ar
     3    1    4      ar
     4    2    5       1
     5    2    6      ar
     6    3    7      ar
     7    3    8      ar
     8    4    9      ar
     9    5   10      am
    10    5   11       1
    11    6   12      ar
    12    7   13      ar
    13    8   12      ar
    14    9   13      ar
    15    9   14       1
    16   10   15       1
    17   10   16       2
    18   11   17       1
    19   14   18       1
    20   15   17       1
    21   15   19       1
    22   18   20      ar
    23   18   21      ar
    24   19   22       1
    25   20   23      ar
    26   20   24       1
    27   21   25      ar
    28   22   26       1
    29   23   27      ar
    30   24   28       3
    31   25   27      ar
    32   25   29       1
    33   26   30       1
    34   29   31       1
    35   30   31       1
    36   30   32       2
    37   31   33       1
    38   32   34       1
    39   33   34       2
    40    4   35       1
    41    6   36       1
    42    7   37       1
    43    8   38       1
    44   11   39       1
    45   11   40       1
    46   12   41       1
    47   13   42       1
    48   15   43       1
    49   17   44       1
    50   17   45       1
    51   19   46       1
    52   21   47       1
    53   22   48       1
    54   22   49       1
    55   23   50       1
    56   26   51       1
    57   26   52       1
    58   27   53       1
    59   29   54       1
    60   29   55       1
    61   32   56       1
    62   33   57       1
    63   19   58       1
@<TRIPOS>SUBSTRUCTURE
     1 U661003     1 GROUP             4 B     U66     0 **** U66 B1003
