@<TRIPOS>MOLECULE
1ysz_NEC_1_ligand
   38    40     1     0     0
SMALL
NO_CHARGES


@<TRIPOS>ATOM
     1 C5'         44.7930    34.9480    38.3070 C.2          1 NEC338   0.0000
     2 O5'         44.9650    34.3590    37.0210 O.2          1 NEC338   0.0000
     3 N5'         43.9960    36.1360    38.4770 N.am         1 NEC338   0.0000
     4 C51         43.8060    37.0530    37.3800 C.3          1 NEC338   0.0000
     5 C52         44.4200    38.3960    37.7650 C.3          1 NEC338   0.0000
     6 C4'         45.3830    34.3460    39.5600 C.3          1 NEC338   0.0000
     7 O4'         44.3880    33.6290    40.2370 O.3          1 NEC338   0.0000
     8 C3'         46.5310    33.3590    39.3700 C.3          1 NEC338   0.0000
     9 O3'         47.8020    33.9680    39.3790 O.3          1 NEC338   0.0000
    10 C2'         46.2870    32.3470    40.5010 C.3          1 NEC338   0.0000
    11 O2'         46.8990    32.7970    41.6960 O.3          1 NEC338   0.0000
    12 C1'         44.7380    32.2630    40.5720 C.3          1 NEC338   0.0000
    13 N9          44.2890    31.2310    39.5790 N.pl3        1 NEC338   0.0000
    14 C8          43.6530    31.4120    38.3570 C.2          1 NEC338   0.0000
    15 N7          43.3980    30.2780    37.7390 N.2          1 NEC338   0.0000
    16 C5          43.8770    29.2930    38.6080 C.ar         1 NEC338   0.0000
    17 C6          43.9030    27.8490    38.5550 C.ar         1 NEC338   0.0000
    18 N6          43.4030    27.1540    37.5250 N.pl3        1 NEC338   0.0000
    19 N1          44.4510    27.1550    39.6090 N.ar         1 NEC338   0.0000
    20 C2          44.9590    27.8440    40.6580 C.ar         1 NEC338   0.0000
    21 N3          45.0020    29.1890    40.8250 N.ar         1 NEC338   0.0000
    22 C4          44.4410    29.8670    39.7520 C.ar         1 NEC338   0.0000
    23 H5'         43.5714    36.3263    39.3621 H            1 NEC338   0.0000
    24 H2          42.8289    37.1672    37.2003 H            1 NEC338   0.0000
    25 H3          44.2563    36.6979    36.5608 H            1 NEC338   0.0000
    26 H4          44.2975    39.0458    37.0148 H            1 NEC338   0.0000
    27 H5          43.9687    38.7458    38.5860 H            1 NEC338   0.0000
    28 H6          45.3961    38.2765    37.9465 H            1 NEC338   0.0000
    29 H4'         45.6973    35.0886    40.1514 H            1 NEC338   0.0000
    30 H3'         46.4079    32.8927    38.4940 H            1 NEC338   0.0000
    31 H9          47.6984    34.9537    39.5117 H            1 NEC338   0.0000
    32 H2'         46.6621    31.4564    40.2440 H            1 NEC338   0.0000
    33 H11         46.2507    33.3566    42.2123 H            1 NEC338   0.0000
    34 H1'         44.4327    32.0300    41.4953 H            1 NEC338   0.0000
    35 H13         43.4141    32.3094    37.9860 H            1 NEC338   0.0000
    36 H14         43.4423    26.1548    37.5300 H            1 NEC338   0.0000
    37 H15         42.9904    27.6343    36.7510 H            1 NEC338   0.0000
    38 H16         45.3490    27.2957    41.3978 H            1 NEC338   0.0000
@<TRIPOS>BOND
     1    1    2       2
     2    1    3      am
     3    1    6       1
     4    3    4       1
     5    4    5       1
     6    6    7       1
     7    6    8       1
     8    7   12       1
     9    8    9       1
    10    8   10       1
    11   10   11       1
    12   10   12       1
    13   12   13       1
    14   13   14       1
    15   13   22       1
    16   14   15       2
    17   15   16       1
    18   16   17      ar
    19   16   22      ar
    20   17   18       1
    21   17   19      ar
    22   19   20      ar
    23   20   21      ar
    24   21   22      ar
    25    3   23       1
    26    4   24       1
    27    4   25       1
    28    5   26       1
    29    5   27       1
    30    5   28       1
    31    6   29       1
    32    8   30       1
    33    9   31       1
    34   10   32       1
    35   11   33       1
    36   12   34       1
    37   14   35       1
    38   18   36       1
    39   18   37       1
    40   20   38       1
@<TRIPOS>SUBSTRUCTURE
     1 NEC338      1 GROUP             4 A     NEC     0 **** NEC A 338
