@<TRIPOS>MOLECULE
1egy_9AP_2_ligand
   26    28     1     0     0
SMALL
NO_CHARGES


@<TRIPOS>ATOM
     1 C1         -12.1810     7.1400    13.9690 C.ar         1 9AP801   0.0000
     2 C2         -12.4480     8.1410    14.9190 C.ar         1 9AP801   0.0000
     3 C3         -13.9810     5.8520    14.8970 C.ar         1 9AP801   0.0000
     4 C4         -13.4710     8.0240    15.8730 C.ar         1 9AP801   0.0000
     5 C5         -12.9570     5.9830    13.9570 C.ar         1 9AP801   0.0000
     6 C6         -14.2650     6.8510    15.8580 C.ar         1 9AP801   0.0000
     7 C7         -13.7330     9.0410    16.8200 C.ar         1 9AP801   0.0000
     8 C8         -14.7690     8.8480    17.7290 C.ar         1 9AP801   0.0000
     9 N1         -13.0540    10.2140    16.9420 N.pl3        1 9AP801   0.0000
    10 C9         -15.5460     7.6960    17.7210 C.ar         1 9AP801   0.0000
    11 C10        -16.5590     7.5930    18.6670 C.ar         1 9AP801   0.0000
    12 C11        -15.2960     6.6790    16.7860 C.ar         1 9AP801   0.0000
    13 C12        -17.3670     6.4570    18.7170 C.ar         1 9AP801   0.0000
    14 C13        -17.1430     5.4280    17.8000 C.ar         1 9AP801   0.0000
    15 C14        -16.1240     5.5510    16.8560 C.ar         1 9AP801   0.0000
    16 H1         -11.4404     7.2573    13.3074 H            1 9AP801   0.0000
    17 H2         -11.8872     8.9689    14.9151 H            1 9AP801   0.0000
    18 H3         -14.5353     5.0197    14.8909 H            1 9AP801   0.0000
    19 H4         -12.7839     5.2602    13.2880 H            1 9AP801   0.0000
    20 H5         -14.9596     9.5581    18.4068 H            1 9AP801   0.0000
    21 H6         -13.3165    10.8727    17.6471 H            1 9AP801   0.0000
    22 H7         -12.2925    10.4173    16.3265 H            1 9AP801   0.0000
    23 H8         -16.7097     8.3384    19.3163 H            1 9AP801   0.0000
    24 H9         -18.0948     6.3808    19.3985 H            1 9AP801   0.0000
    25 H10        -17.7115     4.6056    17.8202 H            1 9AP801   0.0000
    26 H11        -15.9788     4.8062    16.2047 H            1 9AP801   0.0000
@<TRIPOS>BOND
     1    1    2      ar
     2    1    5      ar
     3    2    4      ar
     4    3    5      ar
     5    3    6      ar
     6    4    6      ar
     7    4    7      ar
     8    6   12      ar
     9    7    8      ar
    10    7    9       1
    11    8   10      ar
    12   10   11      ar
    13   10   12      ar
    14   11   13      ar
    15   12   15      ar
    16   13   14      ar
    17   14   15      ar
    18    1   16       1
    19    2   17       1
    20    3   18       1
    21    5   19       1
    22    8   20       1
    23    9   21       1
    24    9   22       1
    25   11   23       1
    26   13   24       1
    27   14   25       1
    28   15   26       1
@<TRIPOS>SUBSTRUCTURE
     1 9AP801      1 GROUP             4 A     9AP     0 **** 9AP A 801
