@<TRIPOS>MOLECULE
2q9y_BTM_1_ligand
   36    36     1     0     0
SMALL
NO_CHARGES


@<TRIPOS>ATOM
     1 N          -39.6830    -3.0680    15.8930 N.4          1 BTM704   1.0000
     2 C1         -40.5330    -2.4500    14.7200 C.3          1 BTM704   0.0000
     3 C2         -40.5870    -3.5210    17.0960 C.3          1 BTM704   0.0000
     4 C3         -41.2090    -4.9480    17.0920 C.3          1 BTM704   0.0000
     5 C4         -38.7370    -1.9680    16.4410 C.3          1 BTM704   0.0000
     6 C5         -39.3560    -0.6670    17.0100 C.3          1 BTM704   0.0000
     7 C6         -38.7970    -4.2710    15.4800 C.3          1 BTM704   0.0000
     8 C7         -37.8150    -4.0700    14.3130 C.3          1 BTM704   0.0000
     9 C8         -41.6120    -3.2600    13.9910 C.ar         1 BTM704   0.0000
    10 C9         -42.9290    -2.7120    13.8810 C.ar         1 BTM704   0.0000
    11 C10        -43.9710    -3.4160    13.2280 C.ar         1 BTM704   0.0000
    12 C11        -43.7150    -4.6900    12.6700 C.ar         1 BTM704   0.0000
    13 C12        -42.4150    -5.2590    12.7620 C.ar         1 BTM704   0.0000
    14 C13        -41.3790    -4.5510    13.4140 C.ar         1 BTM704   0.0000
    15 H1         -39.8788    -2.1607    14.0212 H            1 BTM704   0.0000
    16 H2         -40.9927    -1.6469    15.0991 H            1 BTM704   0.0000
    17 H3         -41.3465    -2.8727    17.1494 H            1 BTM704   0.0000
    18 H4         -40.0288    -3.4493    17.9226 H            1 BTM704   0.0000
    19 H5         -41.7522    -5.0772    17.9216 H            1 BTM704   0.0000
    20 H6         -41.7961    -5.0535    16.2894 H            1 BTM704   0.0000
    21 H7         -40.4783    -5.6300    17.0625 H            1 BTM704   0.0000
    22 H8         -38.1307    -1.7017    15.6917 H            1 BTM704   0.0000
    23 H9         -38.1982    -2.3824    17.1745 H            1 BTM704   0.0000
    24 H10        -38.6258    -0.0593    17.3222 H            1 BTM704   0.0000
    25 H11        -39.8871    -0.2106    16.2961 H            1 BTM704   0.0000
    26 H12        -39.9547    -0.8913    17.7790 H            1 BTM704   0.0000
    27 H13        -39.4095    -5.0205    15.2289 H            1 BTM704   0.0000
    28 H14        -38.2590    -4.5342    16.2808 H            1 BTM704   0.0000
    29 H15        -37.3099    -4.9180    14.1525 H            1 BTM704   0.0000
    30 H16        -38.3236    -3.8238    13.4880 H            1 BTM704   0.0000
    31 H17        -37.1731    -3.3375    14.5399 H            1 BTM704   0.0000
    32 H18        -43.1184    -1.8121    14.2737 H            1 BTM704   0.0000
    33 H19        -44.8840    -3.0135    13.1620 H            1 BTM704   0.0000
    34 H20        -44.4485    -5.1909    12.2105 H            1 BTM704   0.0000
    35 H21        -42.2336    -6.1591    12.3659 H            1 BTM704   0.0000
    36 H22        -40.4677    -4.9584    13.4735 H            1 BTM704   0.0000
@<TRIPOS>BOND
     1    1    2       1
     2    1    3       1
     3    1    5       1
     4    1    7       1
     5    2    9       1
     6    3    4       1
     7    5    6       1
     8    7    8       1
     9    9   10      ar
    10    9   14      ar
    11   10   11      ar
    12   11   12      ar
    13   12   13      ar
    14   13   14      ar
    15    2   15       1
    16    2   16       1
    17    3   17       1
    18    3   18       1
    19    4   19       1
    20    4   20       1
    21    4   21       1
    22    5   22       1
    23    5   23       1
    24    6   24       1
    25    6   25       1
    26    6   26       1
    27    7   27       1
    28    7   28       1
    29    8   29       1
    30    8   30       1
    31    8   31       1
    32   10   32       1
    33   11   33       1
    34   12   34       1
    35   13   35       1
    36   14   36       1
@<TRIPOS>SUBSTRUCTURE
     1 BTM704      1 GROUP             4 B     BTM     0 **** BTM B 704
