@<TRIPOS>MOLECULE
1m3q_ANG_1_ligand
   18    19     1     0     0
SMALL
NO_CHARGES


@<TRIPOS>ATOM
     1 N9          20.4680    23.5940    34.0930 N.2          1 ANG326   0.0000
     2 C4          20.4960    23.8110    32.7350 C.2          1 ANG326   0.0000
     3 N3          20.5330    25.0140    32.1250 N.2          1 ANG326   0.0000
     4 C2          20.5450    24.9000    30.8050 C.2          1 ANG326   0.0000
     5 N2          20.5790    26.0040    30.0440 N.pl3        1 ANG326   0.0000
     6 N1          20.5250    23.6950    30.1400 N.pl3        1 ANG326   0.0000
     7 C6          20.4930    22.4450    30.7530 C.2          1 ANG326   0.0000
     8 O6          20.4860    21.4190    30.0650 O.2          1 ANG326   0.0000
     9 C5          20.4770    22.5570    32.1640 C.2          1 ANG326   0.0000
    10 N7          20.4440    21.5720    33.1400 N.pl3        1 ANG326   0.0000
    11 C8          20.4370    22.2280    34.2690 C.2          1 ANG326   0.0000
    12 N8          20.4080    21.6960    35.3530 N.pl3        1 ANG326   0.0000
    13 H1          20.5882    25.9241    29.0472 H            1 ANG326   0.0000
    14 H2          20.5951    26.9070    30.4734 H            1 ANG326   0.0000
    15 H3          20.5341    23.7190    29.1403 H            1 ANG326   0.0000
    16 H4          20.3864    20.6985    35.4200 H            1 ANG326   0.0000
    17 H5          20.4056    22.2531    36.1835 H            1 ANG326   0.0000
    18 H6          20.4289    20.5808    33.0084 H            1 ANG326   0.0000
@<TRIPOS>BOND
     1    1    2       1
     2    1   11       2
     3    2    3       1
     4    2    9       2
     5    3    4       2
     6    4    5       1
     7    4    6       1
     8    6    7       1
     9    7    8       2
    10    7    9       1
    11    9   10       1
    12   10   11       1
    13   11   12       1
    14   12   17       1
    15    5   13       1
    16    5   14       1
    17    6   15       1
    18   12   16       1
    19   10   18       1
@<TRIPOS>SUBSTRUCTURE
     1 ANG326      1 GROUP             4 A     ANG     0 **** ANG A 326
