@<TRIPOS>MOLECULE
3ix9_MTX_2_ligand
   54    56     1     0     0
SMALL
NO_CHARGES


@<TRIPOS>ATOM
     1 N1         -15.6760   -16.5800   -24.1100 N.ar         1 MTX200   1.0000
     2 C2         -15.3550   -17.8800   -24.1960 C.ar         1 MTX200   0.0000
     3 NA2        -15.5590   -18.5420   -25.3330 N.pl3        1 MTX200   0.0000
     4 N3         -14.8670   -18.5450   -23.1390 N.ar         1 MTX200   0.0000
     5 C4         -14.6990   -17.9280   -21.9620 C.ar         1 MTX200   0.0000
     6 NA4        -14.1420   -18.5570   -20.9300 N.pl3        1 MTX200   0.0000
     7 C4A        -15.0350   -16.5890   -21.8450 C.ar         1 MTX200   0.0000
     8 N5         -14.8890   -15.9550   -20.6750 N.pl3        1 MTX200   0.0000
     9 C6         -15.2040   -14.6580   -20.5730 C.2          1 MTX200   0.0000
    10 C7         -15.6660   -13.9790   -21.6970 C.2          1 MTX200   0.0000
    11 N8         -15.8190   -14.6110   -22.8480 N.2          1 MTX200   0.0000
    12 C8A        -15.5210   -15.9140   -22.9560 C.ar         1 MTX200   0.0000
    13 C9         -15.2450   -14.0890   -19.3020 C.2          1 MTX200   0.0000
    14 N10        -15.7560   -12.8810   -19.1530 N.pl3        1 MTX200   0.0000
    15 CM         -14.9740   -11.8550   -18.8640 C.3          1 MTX200   0.0000
    16 C11        -19.8170   -12.3910   -19.6340 C.ar         1 MTX200   0.0000
    17 C12        -19.0160   -11.2960   -19.3350 C.ar         1 MTX200   0.0000
    18 C13        -17.6480   -11.4610   -19.1480 C.ar         1 MTX200   0.0000
    19 C14        -17.0750   -12.7240   -19.2650 C.ar         1 MTX200   0.0000
    20 C15        -17.8860   -13.8170   -19.5530 C.ar         1 MTX200   0.0000
    21 C16        -19.2560   -13.6590   -19.7390 C.ar         1 MTX200   0.0000
    22 C          -21.3180   -12.1890   -19.8540 C.2          1 MTX200   0.0000
    23 O          -21.8290   -11.0900   -19.6450 O.2          1 MTX200   0.0000
    24 N          -21.9650   -13.2550   -20.3120 N.am         1 MTX200   0.0000
    25 CA         -23.4210   -13.2830   -20.5280 C.3          1 MTX200   0.0000
    26 CT         -23.9160   -14.5930   -19.9110 C.2          1 MTX200   0.0000
    27 O1         -23.1100   -15.5490   -19.9110 O.co2        1 MTX200   0.0000
    28 O2         -25.0790   -14.6130   -19.4520 O.co2        1 MTX200  -1.0000
    29 CB         -23.8200   -13.2890   -22.0070 C.3          1 MTX200   0.0000
    30 CG         -23.7010   -11.9370   -22.7160 C.3          1 MTX200   0.0000
    31 CD         -24.4010   -11.9790   -24.0790 C.2          1 MTX200   0.0000
    32 OE1        -25.3660   -12.7650   -24.2090 O.co2        1 MTX200   0.0000
    33 OE2        -23.9810   -11.2130   -24.9720 O.co2        1 MTX200  -1.0000
    34 HA21       -15.3198   -19.5108   -25.3973 H            1 MTX200   0.0000
    35 HA22       -15.9514   -18.0704   -26.1227 H            1 MTX200   0.0000
    36 HA41       -14.0244   -18.0809   -20.0585 H            1 MTX200   0.0000
    37 HA42       -13.8411   -19.5058   -21.0260 H            1 MTX200   0.0000
    38 H5         -14.5447   -16.4502   -19.8774 H            1 MTX200   0.0000
    39 H6         -15.8839   -13.0051   -21.6332 H            1 MTX200   0.0000
    40 H7         -14.8915   -14.5898   -18.5119 H            1 MTX200   0.0000
    41 HM1        -15.5270   -11.0252   -18.7886 H            1 MTX200   0.0000
    42 HM2        -14.5082   -12.0251   -17.9956 H            1 MTX200   0.0000
    43 HM3        -14.2953   -11.7385   -19.5891 H            1 MTX200   0.0000
    44 H11        -19.4243   -10.3867   -19.2540 H            1 MTX200   0.0000
    45 H12        -17.0751   -10.6711   -18.9292 H            1 MTX200   0.0000
    46 H13        -17.4794   -14.7276   -19.6273 H            1 MTX200   0.0000
    47 H14        -19.8317   -14.4500   -19.9462 H            1 MTX200   0.0000
    48 H15        -21.4373   -14.0785   -20.5202 H            1 MTX200   0.0000
    49 HA         -23.8480   -12.5067   -20.0643 H            1 MTX200   0.0000
    50 HB1        -24.7717   -13.5895   -22.0701 H            1 MTX200   0.0000
    51 HB2        -23.2319   -13.9421   -22.4841 H            1 MTX200   0.0000
    52 HG1        -22.7340   -11.7200   -22.8497 H            1 MTX200   0.0000
    53 HG2        -24.1259   -11.2306   -22.1500 H            1 MTX200   0.0000
    54 H21        -16.0338   -16.1036   -24.9131 H            1 MTX200   0.0000
@<TRIPOS>BOND
     1    1    2      ar
     2    1   12      ar
     3    2    3       1
     4    2    4      ar
     5    4    5      ar
     6    5    6       1
     7    5    7      ar
     8    7    8       1
     9    7   12      ar
    10    8    9       1
    11    9   10       1
    12    9   13       2
    13   10   11       2
    14   11   12       1
    15   13   14       1
    16   14   15       1
    17   14   19       1
    18   16   17      ar
    19   16   21      ar
    20   16   22       1
    21   17   18      ar
    22   18   19      ar
    23   19   20      ar
    24   20   21      ar
    25   22   23       2
    26   22   24      am
    27   24   25       1
    28   25   26       1
    29   25   29       1
    30   26   27      ar
    31   26   28      ar
    32   29   30       1
    33   30   31       1
    34   31   32      ar
    35   31   33      ar
    36    3   34       1
    37    3   35       1
    38    6   36       1
    39    6   37       1
    40    8   38       1
    41   10   39       1
    42   13   40       1
    43   15   41       1
    44   15   42       1
    45   15   43       1
    46   17   44       1
    47   18   45       1
    48   20   46       1
    49   21   47       1
    50   24   48       1
    51   25   49       1
    52   30   53       1
    53   29   50       1
    54   29   51       1
    55   30   52       1
    56    1   54       1
@<TRIPOS>SUBSTRUCTURE
     1 MTX200      1 GROUP             4 B     MTX     0 **** MTX B 200
