@<TRIPOS>MOLECULE
1gpe_FAD_1_ligand
   84    89     1     0     0
SMALL
NO_CHARGES


@<TRIPOS>ATOM
     1 PA           2.9920    11.7540   -24.0420 P.3          1 FAD600   0.0000
     2 O1A          2.6300    10.9580   -22.8820 O.co2        1 FAD600   0.0000
     3 O2A          4.3000    11.8390   -24.4780 O.co2        1 FAD600  -1.0000
     4 O5B          2.6430    13.1670   -23.6420 O.3          1 FAD600   0.0000
     5 C5B          1.3550    13.5390   -23.0700 C.3          1 FAD600   0.0000
     6 C4B          1.6720    14.8120   -22.2860 C.3          1 FAD600   0.0000
     7 O4B          0.4090    15.4050   -21.8230 O.3          1 FAD600   0.0000
     8 C3B          2.5440    14.6260   -21.0200 C.3          1 FAD600   0.0000
     9 O3B          3.6380    15.4810   -21.0100 O.3          1 FAD600   0.0000
    10 C2B          1.5350    14.7750   -19.8810 C.3          1 FAD600   0.0000
    11 O2B          2.1250    15.3680   -18.7660 O.3          1 FAD600   0.0000
    12 C1B          0.6720    15.8530   -20.4550 C.3          1 FAD600   0.0000
    13 N9A         -0.6890    15.8590   -19.9240 N.pl3        1 FAD600   0.0000
    14 C8A         -1.3930    14.8080   -19.4350 C.2          1 FAD600   0.0000
    15 N7A         -2.6110    15.1940   -19.0870 N.2          1 FAD600   0.0000
    16 C5A         -2.6830    16.5210   -19.3740 C.ar         1 FAD600   0.0000
    17 C6A         -3.7410    17.5150   -19.2330 C.ar         1 FAD600   0.0000
    18 N6A         -4.9370    17.2220   -18.7930 N.pl3        1 FAD600   0.0000
    19 N1A         -3.3980    18.7430   -19.6570 N.ar         1 FAD600   0.0000
    20 C2A         -2.1890    19.0880   -20.1460 C.ar         1 FAD600   0.0000
    21 N3A         -1.1710    18.2430   -20.3120 N.ar         1 FAD600   0.0000
    22 C4A         -1.4680    16.9910   -19.9120 C.ar         1 FAD600   0.0000
    23 N1           8.3770     4.4500   -26.9820 N.2          1 FAD600   0.0000
    24 C2           9.4070     4.0600   -27.7180 C.2          1 FAD600   0.0000
    25 O2           9.4810     4.3120   -28.8700 O.2          1 FAD600   0.0000
    26 N3          10.4870     3.3350   -27.1660 N.pl3        1 FAD600   0.0000
    27 C4          10.5280     2.9760   -25.8670 C.2          1 FAD600   0.0000
    28 O4          11.4290     2.3460   -25.3810 O.2          1 FAD600   0.0000
    29 C4X          9.3710     3.3330   -25.0660 C.2          1 FAD600   0.0000
    30 N5           9.3750     3.0110   -23.7940 N.2          1 FAD600   0.0000
    31 C5X          8.3270     3.4520   -23.0390 C.ar         1 FAD600   0.0000
    32 C6           8.4010     3.1790   -21.6730 C.ar         1 FAD600   0.0000
    33 C7           7.4210     3.6730   -20.8660 C.ar         1 FAD600   0.0000
    34 C7M          7.4520     3.3820   -19.3870 C.3          1 FAD600   0.0000
    35 C8           6.3500     4.4480   -21.4110 C.ar         1 FAD600   0.0000
    36 C8M          5.2440     4.9950   -20.5350 C.3          1 FAD600   0.0000
    37 C9           6.3010     4.7520   -22.7590 C.ar         1 FAD600   0.0000
    38 C9A          7.2770     4.2210   -23.5730 C.ar         1 FAD600   0.0000
    39 N10          7.3190     4.5160   -24.9320 N.pl3        1 FAD600   0.0000
    40 C10          8.3230     4.0910   -25.6970 C.2          1 FAD600   0.0000
    41 C1'          6.1750     5.1290   -25.6310 C.3          1 FAD600   0.0000
    42 C2'          6.3690     6.6390   -25.8240 C.3          1 FAD600   0.0000
    43 O2'          7.1190     7.2230   -24.7630 O.3          1 FAD600   0.0000
    44 C3'          4.9260     7.1550   -25.7800 C.3          1 FAD600   0.0000
    45 O3'          4.2050     6.4020   -26.7460 O.3          1 FAD600   0.0000
    46 C4'          4.9090     8.5640   -26.3330 C.3          1 FAD600   0.0000
    47 O4'          5.6800     9.4650   -25.5190 O.3          1 FAD600   0.0000
    48 C5'          3.4130     8.9510   -26.3450 C.3          1 FAD600   0.0000
    49 O5'          3.4110    10.4240   -26.9100 O.3          1 FAD600   0.0000
    50 P            2.1340    11.2930   -26.7270 P.3          1 FAD600   0.0000
    51 O1P          2.4630    12.5930   -27.3740 O.co2        1 FAD600   0.0000
    52 O2P          1.0420    10.4600   -27.0750 O.co2        1 FAD600  -1.0000
    53 O3P          1.9680    11.3800   -25.2320 O.3          1 FAD600   0.0000
    54 H5B1         1.0116    12.8214   -22.4641 H            1 FAD600   0.0000
    55 H5B2         0.6828    13.7188   -23.7882 H            1 FAD600   0.0000
    56 H4B          2.1265    15.4605   -22.8966 H            1 FAD600   0.0000
    57 H3B          2.8844    13.6857   -21.0126 H            1 FAD600   0.0000
    58 H5           3.3204    16.4289   -21.0332 H            1 FAD600   0.0000
    59 H2B          1.0387    13.9324   -19.6719 H            1 FAD600   0.0000
    60 H7           2.4668    16.2749   -19.0125 H            1 FAD600   0.0000
    61 H1B          1.1045    16.7540   -20.4199 H            1 FAD600   0.0000
    62 H8A         -1.0426    13.8753   -19.3495 H            1 FAD600   0.0000
    63 H6A1        -5.6300    17.9386   -18.7136 H            1 FAD600   0.0000
    64 H6A2        -5.1586    16.2814   -18.5359 H            1 FAD600   0.0000
    65 H2A         -2.0463    20.0441   -20.4018 H            1 FAD600   0.0000
    66 H13         11.2490     3.0787   -27.7607 H            1 FAD600   0.0000
    67 H14          9.1520     2.6362   -21.2969 H            1 FAD600   0.0000
    68 H7M1         6.6665     3.8155   -18.9454 H            1 FAD600   0.0000
    69 H7M2         7.4129     2.3935   -19.2409 H            1 FAD600   0.0000
    70 H7M3         8.2972     3.7439   -18.9937 H            1 FAD600   0.0000
    71 H8M1         4.5946     5.5059   -21.0982 H            1 FAD600   0.0000
    72 H8M2         4.7708     4.2382   -20.0840 H            1 FAD600   0.0000
    73 H8M3         5.6357     5.6024   -19.8439 H            1 FAD600   0.0000
    74 H21          5.5809     5.3379   -23.1306 H            1 FAD600   0.0000
    75 H1'1         5.3464     4.9751   -25.0928 H            1 FAD600   0.0000
    76 H1'2         6.0748     4.6981   -26.5278 H            1 FAD600   0.0000
    77 H2'          6.7911     6.8344   -26.7092 H            1 FAD600   0.0000
    78 H25          6.8322     8.1724   -24.6353 H            1 FAD600   0.0000
    79 H3'          4.5235     7.0951   -24.8666 H            1 FAD600   0.0000
    80 H27          4.8205     6.1344   -27.4873 H            1 FAD600   0.0000
    81 H4'          5.2653     8.5643   -27.2674 H            1 FAD600   0.0000
    82 H29          5.0881    10.1950   -25.1774 H            1 FAD600   0.0000
    83 H5'1         3.0302     8.9229   -25.4216 H            1 FAD600   0.0000
    84 H5'2         2.8916     8.3401   -26.9407 H            1 FAD600   0.0000
@<TRIPOS>BOND
     1    1    2      ar
     2    1    3      ar
     3    1    4       1
     4    1   53       1
     5    4    5       1
     6    5    6       1
     7    6    7       1
     8    6    8       1
     9    7   12       1
    10    8    9       1
    11    8   10       1
    12   10   11       1
    13   10   12       1
    14   12   13       1
    15   13   14       1
    16   13   22       1
    17   14   15       2
    18   15   16       1
    19   16   17      ar
    20   16   22      ar
    21   17   18       1
    22   17   19      ar
    23   19   20      ar
    24   20   21      ar
    25   21   22      ar
    26   23   24       1
    27   23   40       2
    28   24   25       2
    29   24   26       1
    30   26   27       1
    31   27   28       2
    32   27   29       1
    33   29   30       2
    34   29   40       1
    35   30   31       1
    36   31   32      ar
    37   31   38      ar
    38   32   33      ar
    39   33   34       1
    40   33   35      ar
    41   35   36       1
    42   35   37      ar
    43   37   38      ar
    44   38   39       1
    45   39   40       1
    46   39   41       1
    47   41   42       1
    48   42   43       1
    49   42   44       1
    50   44   45       1
    51   44   46       1
    52   46   47       1
    53   46   48       1
    54   48   49       1
    55   49   50       1
    56   50   51      ar
    57   50   52      ar
    58   50   53       1
    59   48   84       1
    60    5   54       1
    61    5   55       1
    62    6   56       1
    63    8   57       1
    64    9   58       1
    65   10   59       1
    66   11   60       1
    67   12   61       1
    68   14   62       1
    69   18   63       1
    70   18   64       1
    71   20   65       1
    72   26   66       1
    73   32   67       1
    74   34   68       1
    75   34   69       1
    76   34   70       1
    77   36   71       1
    78   36   72       1
    79   36   73       1
    80   37   74       1
    81   41   75       1
    82   41   76       1
    83   42   77       1
    84   43   78       1
    85   44   79       1
    86   45   80       1
    87   46   81       1
    88   47   82       1
    89   48   83       1
@<TRIPOS>SUBSTRUCTURE
     1 FAD600      1 GROUP             4 A     FAD     0 **** FAD A 600
