@<TRIPOS>MOLECULE
2xe7_ADP_1_ligand
   39    41     1     0     0
SMALL
NO_CHARGES


@<TRIPOS>ATOM
     1 PB          -6.0230   -21.3840   -19.8000 P.3          1 ADP1418   0.0000
     2 O1B         -6.5400   -19.9620   -19.8500 O.co2        1 ADP1418   0.0000
     3 O2B         -4.9620   -21.5820   -18.7510 O.co2        1 ADP1418  -1.0000
     4 O3B         -5.5610   -21.9860   -21.1390 O.co2        1 ADP1418  -1.0000
     5 PA          -7.3920   -23.8490   -19.3260 P.3          1 ADP1418   0.0000
     6 O1A         -6.4640   -24.3220   -20.4720 O.co2        1 ADP1418   0.0000
     7 O2A         -7.1560   -24.3010   -17.9120 O.co2        1 ADP1418  -1.0000
     8 O3A         -7.3380   -22.2280   -19.3140 O.3          1 ADP1418   0.0000
     9 O5'         -8.9330   -24.2530   -19.6620 O.3          1 ADP1418   0.0000
    10 C5'         -9.8560   -23.4310   -20.3850 C.3          1 ADP1418   0.0000
    11 C4'        -11.0190   -24.3330   -20.8530 C.3          1 ADP1418   0.0000
    12 O4'        -11.9280   -24.5390   -19.7650 O.3          1 ADP1418   0.0000
    13 C3'        -11.8670   -23.7990   -21.9960 C.3          1 ADP1418   0.0000
    14 O3'        -11.7650   -24.7240   -23.0910 O.3          1 ADP1418   0.0000
    15 C2'        -13.2820   -23.7200   -21.4170 C.3          1 ADP1418   0.0000
    16 O2'        -14.3090   -24.0460   -22.3550 O.3          1 ADP1418   0.0000
    17 C1'        -13.2390   -24.7110   -20.2660 C.3          1 ADP1418   0.0000
    18 N9         -14.1870   -24.4660   -19.1590 N.pl3        1 ADP1418   0.0000
    19 C8         -14.3050   -23.3330   -18.4270 C.2          1 ADP1418   0.0000
    20 N7         -15.2830   -23.4380   -17.4860 N.2          1 ADP1418   0.0000
    21 C5         -15.7870   -24.6760   -17.6020 C.ar         1 ADP1418   0.0000
    22 C6         -16.8610   -25.4560   -16.9410 C.ar         1 ADP1418   0.0000
    23 N6         -17.5830   -24.9240   -15.9060 N.pl3        1 ADP1418   0.0000
    24 N1         -17.0570   -26.7290   -17.3770 N.ar         1 ADP1418   0.0000
    25 C2         -16.3520   -27.2750   -18.3760 C.ar         1 ADP1418   0.0000
    26 N3         -15.3970   -26.6130   -19.0440 N.ar         1 ADP1418   0.0000
    27 C4         -15.0660   -25.3460   -18.7020 C.ar         1 ADP1418   0.0000
    28 H5'1        -9.4012   -23.0231   -21.1767 H            1 ADP1418   0.0000
    29 H5'2       -10.2047   -22.7062   -19.7908 H            1 ADP1418   0.0000
    30 H4'        -10.6434   -25.2192   -21.1242 H            1 ADP1418   0.0000
    31 H3'        -11.5505   -22.8917   -22.2730 H            1 ADP1418   0.0000
    32 H5         -12.3156   -24.3946   -23.8580 H            1 ADP1418   0.0000
    33 H2'        -13.4418   -22.8008   -21.0570 H            1 ADP1418   0.0000
    34 H7         -14.2689   -23.4117   -23.1271 H            1 ADP1418   0.0000
    35 H1'        -13.3525   -25.6421   -20.6128 H            1 ADP1418   0.0000
    36 H9         -13.7418   -22.5177   -18.5614 H            1 ADP1418   0.0000
    37 H10        -18.3042   -25.4628   -15.4705 H            1 ADP1418   0.0000
    38 H11        -17.3890   -23.9968   -15.5857 H            1 ADP1418   0.0000
    39 H12        -16.5471   -28.2208   -18.6358 H            1 ADP1418   0.0000
@<TRIPOS>BOND
     1    1    2      ar
     2    1    3      ar
     3    1    4      ar
     4    1    8       1
     5    5    6      ar
     6    5    7      ar
     7    5    8       1
     8    5    9       1
     9    9   10       1
    10   10   11       1
    11   11   12       1
    12   11   13       1
    13   12   17       1
    14   13   14       1
    15   13   15       1
    16   15   16       1
    17   15   17       1
    18   17   18       1
    19   18   19       1
    20   18   27       1
    21   19   20       2
    22   20   21       1
    23   21   22      ar
    24   21   27      ar
    25   22   23       1
    26   22   24      ar
    27   24   25      ar
    28   25   26      ar
    29   26   27      ar
    30   25   39       1
    31   23   38       1
    32   23   37       1
    33   10   28       1
    34   10   29       1
    35   11   30       1
    36   13   31       1
    37   14   32       1
    38   15   33       1
    39   16   34       1
    40   17   35       1
    41   19   36       1
@<TRIPOS>SUBSTRUCTURE
     1 ADP1418     1 GROUP             4 A     ADP     0 **** ADP A1418
