@<TRIPOS>MOLECULE
1t47_NTD_2_ligand
   33    34     1     0     0
SMALL
NO_CHARGES


@<TRIPOS>ATOM
     1 O1           9.1300    69.0420    51.2720 O.3          1 NTD550   0.0000
     2 C5           8.8550    69.1440    50.0780 C.2          1 NTD550   0.0000
     3 C2           8.2230    70.4450    49.5760 C.3          1 NTD550   0.0000
     4 C3           7.4650    70.1980    48.2720 C.3          1 NTD550   0.0000
     5 C4           8.3590    69.5030    47.2550 C.3          1 NTD550   0.0000
     6 C1           8.9500    68.2350    47.8680 C.2          1 NTD550   0.0000
     7 O5           9.2620    67.3190    47.1080 O.2          1 NTD550   0.0000
     8 C6           9.1460    68.0730    49.2370 C.2          1 NTD550   0.0000
     9 C7           9.6670    66.7530    49.8100 C.2          1 NTD550   0.0000
    10 O7          10.3050    65.8780    48.9860 O.2          1 NTD550   0.0000
    11 C8           9.4650    66.3850    51.2820 C.ar         1 NTD550   0.0000
    12 C13          8.1880    66.0930    51.7370 C.ar         1 NTD550   0.0000
    13 C12          7.9890    65.6120    53.0330 C.ar         1 NTD550   0.0000
    14 C11          9.0750    65.4210    53.8790 C.ar         1 NTD550   0.0000
    15 C14          8.8920    64.8190    55.2770 C.3          1 NTD550   0.0000
    16 F2           7.7490    65.2520    55.8190 F            1 NTD550   0.0000
    17 F3           8.8430    63.4960    55.1860 F            1 NTD550   0.0000
    18 F1           9.8860    65.1720    56.0760 F            1 NTD550   0.0000
    19 C10         10.3540    65.7310    53.4180 C.ar         1 NTD550   0.0000
    20 C9          10.5510    66.2060    52.1350 C.ar         1 NTD550   0.0000
    21 N           11.7880    66.4930    51.7460 N.2          1 NTD550   1.0000
    22 ON2         12.0480    67.0050    50.4440 O.co2        1 NTD550   0.0000
    23 ON1         12.8720    66.2910    52.6490 O.co2        1 NTD550  -1.0000
    24 H1           9.5433    68.2004    51.6198 H            1 NTD550   0.0000
    25 H2           8.9424    71.1211    49.4164 H            1 NTD550   0.0000
    26 H3           7.5877    70.7910    50.2664 H            1 NTD550   0.0000
    27 H4           7.1611    71.0741    47.8977 H            1 NTD550   0.0000
    28 H5           6.6696    69.6213    48.4586 H            1 NTD550   0.0000
    29 H6           9.0999    70.1193    46.9881 H            1 NTD550   0.0000
    30 H7           7.8193    69.2616    46.4485 H            1 NTD550   0.0000
    31 H8           7.4032    66.2279    51.1322 H            1 NTD550   0.0000
    32 H9           7.0643    65.4049    53.3525 H            1 NTD550   0.0000
    33 H10         11.1398    65.6079    54.0242 H            1 NTD550   0.0000
@<TRIPOS>BOND
     1    1    2       1
     2    2    3       1
     3    2    8       2
     4    3    4       1
     5    4    5       1
     6    5    6       1
     7    6    7       2
     8    6    8       1
     9    8    9       1
    10    9   10       2
    11    9   11       1
    12   11   12      ar
    13   11   20      ar
    14   12   13      ar
    15   13   14      ar
    16   14   15       1
    17   14   19      ar
    18   15   16       1
    19   15   17       1
    20   15   18       1
    21   19   20      ar
    22   20   21       1
    23   21   22      ar
    24   21   23      ar
    25    1   24       1
    26    3   25       1
    27    3   26       1
    28    4   27       1
    29    4   28       1
    30    5   29       1
    31    5   30       1
    32   12   31       1
    33   13   32       1
    34   19   33       1
@<TRIPOS>SUBSTRUCTURE
     1 NTD550      1 GROUP             4 B     NTD     0 **** NTD B 550
