@<TRIPOS>MOLECULE
3o6o_94M_1_ligand
   37    39     1     0     0
SMALL
NO_CHARGES


@<TRIPOS>ATOM
     1 N1           7.3900    15.0890     7.2820 N.ar         1 94M214   0.0000
     2 C2           6.1700    14.6930     7.7080 C.ar         1 94M214   0.0000
     3 N2           5.0960    15.4090     7.3580 N.pl3        1 94M214   0.0000
     4 N3           6.0360    13.5610     8.4330 N.ar         1 94M214   0.0000
     5 C4           7.1270    12.8570     8.8150 C.ar         1 94M214   0.0000
     6 C5           8.3840    13.2440     8.3760 C.ar         1 94M214   0.0000
     7 C6           8.4930    14.3850     7.5940 C.ar         1 94M214   0.0000
     8 CL6         10.0410    14.8460     6.9790 Cl           1 94M214   0.0000
     9 N7           9.2800    12.3920     8.8690 N.2          1 94M214   0.0000
    10 C8           8.6260    11.4480     9.5470 C.2          1 94M214   0.0000
    11 N9           7.3260    11.7460     9.5060 N.pl3        1 94M214   0.0000
    12 CAA          6.4870     7.6010     5.5680 C.3          1 94M214   0.0000
    13 CAB          6.6450     5.4220     8.0970 C.3          1 94M214   0.0000
    14 CAC          5.2550    10.2320     7.2830 C.3          1 94M214   0.0000
    15 CAF          6.9510     7.2540     9.8590 C.ar         1 94M214   0.0000
    16 CAH          6.2640    10.9110    10.1040 C.3          1 94M214   0.0000
    17 NAI          6.8620     8.5250    10.2600 N.ar         1 94M214   0.0000
    18 OAM          5.4770     7.4820     6.5370 O.3          1 94M214   0.0000
    19 CAN          6.5120     6.8740     8.5890 C.ar         1 94M214   0.0000
    20 CAP          5.8900     9.1710     8.1960 C.ar         1 94M214   0.0000
    21 CAR          6.3330     9.5010     9.4870 C.ar         1 94M214   0.0000
    22 CAS          5.9610     7.8420     7.7570 C.ar         1 94M214   0.0000
    23 H1           4.1865    15.1289     7.6653 H            1 94M214   0.0000
    24 H2           5.2024    16.2244     6.7890 H            1 94M214   0.0000
    25 H3           9.0361    10.6587    10.0040 H            1 94M214   0.0000
    26 HAA1         6.1248     7.3351     4.6746 H            1 94M214   0.0000
    27 HAA2         6.8032     8.5490     5.5308 H            1 94M214   0.0000
    28 HAA3         7.2520     7.0036     5.8088 H            1 94M214   0.0000
    29 HAB1         6.2771     5.3491     7.1700 H            1 94M214   0.0000
    30 HAB2         7.6095     5.1579     8.0945 H            1 94M214   0.0000
    31 HAB3         6.1349     4.8154     8.7067 H            1 94M214   0.0000
    32 HAC1         5.0040     9.8136     6.4101 H            1 94M214   0.0000
    33 HAC2         4.4369    10.6032     7.7222 H            1 94M214   0.0000
    34 HAC3         5.9110    10.9696     7.1227 H            1 94M214   0.0000
    35 HAF          7.3363     6.5670    10.4751 H            1 94M214   0.0000
    36 HAH1         5.3702    11.3174     9.9141 H            1 94M214   0.0000
    37 HAH2         6.4000    10.8519    11.0929 H            1 94M214   0.0000
@<TRIPOS>BOND
     1    1    2      ar
     2    1    7      ar
     3    2    3       1
     4    2    4      ar
     5    4    5      ar
     6    5    6      ar
     7    5   11       1
     8    6    7      ar
     9    6    9       1
    10    7    8       1
    11    9   10       2
    12   10   11       1
    13   11   16       1
    14   12   18       1
    15   13   19       1
    16   14   20       1
    17   15   17      ar
    18   15   19      ar
    19   16   21       1
    20   17   21      ar
    21   18   22       1
    22   19   22      ar
    23   20   21      ar
    24   20   22      ar
    25    3   23       1
    26    3   24       1
    27   10   25       1
    28   12   26       1
    29   12   27       1
    30   12   28       1
    31   13   29       1
    32   13   30       1
    33   13   31       1
    34   14   32       1
    35   14   33       1
    36   14   34       1
    37   15   35       1
    38   16   36       1
    39   16   37       1
@<TRIPOS>SUBSTRUCTURE
     1 94M214      1 GROUP             4 A     94M     0 **** 94M A 214
