@<TRIPOS>MOLECULE
1xhl_TNE_2_ligand
   24    25     1     0     0
SMALL
NO_CHARGES


@<TRIPOS>ATOM
     1 C1          32.5330   116.7120    -3.6470 C.3          1 TNE2279   0.0000
     2 C2          33.9880   116.3810    -4.1660 C.3          1 TNE2279   0.0000
     3 C3          34.0650   116.4960    -5.7710 C.2          1 TNE2279   0.0000
     4 O3          35.1520   116.4480    -6.3510 O.2          1 TNE2279   0.0000
     5 C4          32.7030   116.6830    -6.6140 C.3          1 TNE2279   0.0000
     6 C5          31.4610   116.9240    -5.6880 C.3          1 TNE2279   0.0000
     7 C6          31.5230   118.3870    -5.1600 C.3          1 TNE2279   0.0000
     8 C7          32.2410   118.2470    -3.7920 C.3          1 TNE2279   0.0000
     9 N8          31.5590   116.0260    -4.5170 N.4          1 TNE2279   1.0000
    10 C9          30.2320   115.8830    -3.8300 C.3          1 TNE2279   0.0000
    11 H1          32.4231   116.4206    -2.6967 H            1 TNE2279   0.0000
    12 H2          34.2294   115.4500    -3.8924 H            1 TNE2279   0.0000
    13 H3          34.6352   117.0262    -3.7600 H            1 TNE2279   0.0000
    14 H4          32.5446   115.8583    -7.1569 H            1 TNE2279   0.0000
    15 H5          32.8071   117.4686    -7.2239 H            1 TNE2279   0.0000
    16 H6          30.6098   116.7633    -6.1877 H            1 TNE2279   0.0000
    17 H7          30.6043   118.7648    -5.0447 H            1 TNE2279   0.0000
    18 H8          32.0474   118.9694    -5.7811 H            1 TNE2279   0.0000
    19 H9          33.0935   118.7697    -3.7866 H            1 TNE2279   0.0000
    20 H10         31.6505   118.5648    -3.0502 H            1 TNE2279   0.0000
    21 H11         29.5903   115.4161    -4.4384 H            1 TNE2279   0.0000
    22 H12         30.3461   115.3487    -2.9925 H            1 TNE2279   0.0000
    23 H13         29.8756   116.7890    -3.6014 H            1 TNE2279   0.0000
    24 H14         31.9076   115.1301    -4.7925 H            1 TNE2279   0.0000
@<TRIPOS>BOND
     1    1    2       1
     2    1    8       1
     3    1    9       1
     4    2    3       1
     5    3    4       2
     6    3    5       1
     7    5    6       1
     8    6    7       1
     9    6    9       1
    10    7    8       1
    11    9   10       1
    12    1   11       1
    13    2   12       1
    14    2   13       1
    15    5   14       1
    16    5   15       1
    17    6   16       1
    18    7   17       1
    19    7   18       1
    20    8   19       1
    21    8   20       1
    22   10   21       1
    23   10   22       1
    24   10   23       1
    25    9   24       1
@<TRIPOS>SUBSTRUCTURE
     1 TNE2279     1 GROUP             4 B     TNE     0 **** TNE B2279
