@<TRIPOS>MOLECULE
4oqy_NDP_1_ligand
   73    77     1     0     0
SMALL
NO_CHARGES


@<TRIPOS>ATOM
     1 PA          10.4950    59.8920    11.0180 P.3          1 NDP1000   0.0000
     2 O1A         11.6780    58.9560    11.0580 O.co2        1 NDP1000   0.0000
     3 O2A         10.5840    61.2130    11.7620 O.co2        1 NDP1000  -1.0000
     4 O5B         10.1960    60.1690     9.4450 O.3          1 NDP1000   0.0000
     5 C5B         10.2710    59.0890     8.5080 C.3          1 NDP1000   0.0000
     6 C4B          9.9100    59.4920     7.0800 C.3          1 NDP1000   0.0000
     7 O4B         10.8510    60.4400     6.5320 O.3          1 NDP1000   0.0000
     8 C3B          9.9520    58.2440     6.1980 C.3          1 NDP1000   0.0000
     9 O3B          8.9750    58.2890     5.1460 O.3          1 NDP1000   0.0000
    10 C2B         11.3720    58.3040     5.6550 C.3          1 NDP1000   0.0000
    11 O2B         11.6280    57.4930     4.4940 O.3          1 NDP1000   0.0000
    12 C1B         11.4580    59.8060     5.4070 C.3          1 NDP1000   0.0000
    13 N9A         12.8350    60.3080     5.2130 N.pl3        1 NDP1000   0.0000
    14 C8A         13.8340    60.5080     6.1130 C.2          1 NDP1000   0.0000
    15 N7A         14.9400    61.0270     5.4880 N.2          1 NDP1000   0.0000
    16 C5A         14.6260    61.1570     4.1770 C.ar         1 NDP1000   0.0000
    17 C6A         15.2930    61.6310     2.9470 C.ar         1 NDP1000   0.0000
    18 N6A         16.5610    62.0840     2.9770 N.pl3        1 NDP1000   0.0000
    19 N1A         14.5800    61.5940     1.7930 N.ar         1 NDP1000   0.0000
    20 C2A         13.2990    61.1540     1.7200 C.ar         1 NDP1000   0.0000
    21 N3A         12.6170    60.7000     2.7920 N.ar         1 NDP1000   0.0000
    22 C4A         13.2310    60.6870     4.0090 C.ar         1 NDP1000   0.0000
    23 O3           9.1960    59.0280    11.5040 O.3          1 NDP1000   0.0000
    24 PN           7.7300    59.5820    11.9490 P.3          1 NDP1000   0.0000
    25 O1N          7.4350    59.1720    13.3750 O.co2        1 NDP1000   0.0000
    26 O2N          6.7070    59.0910    10.9500 O.co2        1 NDP1000  -1.0000
    27 O5D          7.9040    61.1920    11.9830 O.3          1 NDP1000   0.0000
    28 C5D          7.5600    62.0670    10.9030 C.3          1 NDP1000   0.0000
    29 C4D          7.4430    63.5070    11.4110 C.3          1 NDP1000   0.0000
    30 O4D          6.4560    63.6880    12.4420 O.3          1 NDP1000   0.0000
    31 C3D          8.7770    63.9590    12.0150 C.3          1 NDP1000   0.0000
    32 O3D          9.0510    65.2530    11.4840 O.3          1 NDP1000   0.0000
    33 C2D          8.5050    63.9270    13.5160 C.3          1 NDP1000   0.0000
    34 O2D          9.2940    64.7400    14.3760 O.3          1 NDP1000   0.0000
    35 C1D          7.0410    64.3850    13.5490 C.3          1 NDP1000   0.0000
    36 N1N          6.2550    64.0100    14.7200 N.ar         1 NDP1000   1.0000
    37 C2N          6.3860    62.7460    15.1610 C.ar         1 NDP1000   0.0000
    38 C3N          5.6680    62.2530    16.2500 C.ar         1 NDP1000   0.0000
    39 C7N          5.8760    60.8190    16.6850 C.2          1 NDP1000   0.0000
    40 O7N          5.5070    60.5020    17.8020 O.2          1 NDP1000   0.0000
    41 N7N          6.4260    59.8970    15.8730 N.am         1 NDP1000   0.0000
    42 C4N          4.6540    63.1610    16.9660 C.ar         1 NDP1000   0.0000
    43 C5N          4.5900    64.5130    16.3910 C.ar         1 NDP1000   0.0000
    44 C6N          5.3790    64.8840    15.2870 C.ar         1 NDP1000   0.0000
    45 P2B         11.9060    55.9110     4.6220 P.3          1 NDP1000   0.0000
    46 O1X         12.1940    55.5860     3.1830 O.co2        1 NDP1000   0.0000
    47 O2X         10.6220    55.3160     5.1880 O.co2        1 NDP1000  -1.0000
    48 O3X         13.1050    55.9120     5.5430 O.co2        1 NDP1000  -1.0000
    49 H5B1         9.6408    58.3706     8.8026 H            1 NDP1000   0.0000
    50 H5B2        11.2057    58.7336     8.5094 H            1 NDP1000   0.0000
    51 H4B          8.9902    59.8840     7.0639 H            1 NDP1000   0.0000
    52 H3B          9.8269    57.4218     6.7533 H            1 NDP1000   0.0000
    53 H5           9.0383    57.4559     4.5964 H            1 NDP1000   0.0000
    54 H2B         12.0129    58.0526     6.3803 H            1 NDP1000   0.0000
    55 H1B         10.9221    60.0247     4.5915 H            1 NDP1000   0.0000
    56 H8A         13.7718    60.3059     7.0904 H            1 NDP1000   0.0000
    57 H6A1        16.9986    62.4015     2.1357 H            1 NDP1000   0.0000
    58 H6A2        17.0649    62.1029     3.8406 H            1 NDP1000   0.0000
    59 H2A         12.8395    61.1667     0.8319 H            1 NDP1000   0.0000
    60 H5D1         6.6849    61.7819    10.5119 H            1 NDP1000   0.0000
    61 H5D2         8.2701    62.0206    10.2004 H            1 NDP1000   0.0000
    62 H4D          7.2185    64.1039    10.6407 H            1 NDP1000   0.0000
    63 H3D          9.5068    63.3185    11.7757 H            1 NDP1000   0.0000
    64 H16          9.1126    65.1981    10.4874 H            1 NDP1000   0.0000
    65 H2D          8.5540    62.9798    13.8327 H            1 NDP1000   0.0000
    66 H18          8.9976    64.6099    15.3222 H            1 NDP1000   0.0000
    67 H1D          6.9866    65.3724    13.4007 H            1 NDP1000   0.0000
    68 H2N          7.0231    62.1361    14.6896 H            1 NDP1000   0.0000
    69 H7N1         6.5486    58.9578    16.1936 H            1 NDP1000   0.0000
    70 H7N2         6.7120    60.1513    14.9491 H            1 NDP1000   0.0000
    71 H4N          4.0967    62.8633    17.7411 H            1 NDP1000   0.0000
    72 H5N          3.9700    65.1856    16.7950 H            1 NDP1000   0.0000
    73 H6N          5.2947    65.8071    14.9118 H            1 NDP1000   0.0000
@<TRIPOS>BOND
     1    1    2      ar
     2    1    3      ar
     3    1    4       1
     4    1   23       1
     5    4    5       1
     6    5    6       1
     7    6    7       1
     8    6    8       1
     9    7   12       1
    10    8    9       1
    11    8   10       1
    12   10   11       1
    13   10   12       1
    14   11   45       1
    15   12   13       1
    16   13   14       1
    17   13   22       1
    18   14   15       2
    19   15   16       1
    20   16   17      ar
    21   16   22      ar
    22   17   18       1
    23   17   19      ar
    24   19   20      ar
    25   20   21      ar
    26   21   22      ar
    27   23   24       1
    28   24   25      ar
    29   24   26      ar
    30   24   27       1
    31   27   28       1
    32   28   29       1
    33   29   30       1
    34   29   31       1
    35   30   35       1
    36   31   32       1
    37   31   33       1
    38   33   34       1
    39   33   35       1
    40   35   36       1
    41   36   37      ar
    42   36   44      ar
    43   37   38      ar
    44   38   39       1
    45   38   42      ar
    46   39   40       2
    47   39   41      am
    48   42   43      ar
    49   43   44      ar
    50   45   46      ar
    51   45   47      ar
    52   45   48      ar
    53   43   72       1
    54    5   49       1
    55    5   50       1
    56    6   51       1
    57    8   52       1
    58    9   53       1
    59   10   54       1
    60   12   55       1
    61   14   56       1
    62   18   57       1
    63   18   58       1
    64   20   59       1
    65   44   73       1
    66   28   60       1
    67   28   61       1
    68   29   62       1
    69   31   63       1
    70   32   64       1
    71   33   65       1
    72   34   66       1
    73   35   67       1
    74   37   68       1
    75   41   69       1
    76   41   70       1
    77   42   71       1
@<TRIPOS>SUBSTRUCTURE
     1 NDP1000     1 GROUP             4 A     NDP     0 **** NDP A1000
