@<TRIPOS>MOLECULE
1zgd_NAP_1_ligand
   73    77     1     0     0
SMALL
NO_CHARGES


@<TRIPOS>ATOM
     1 PA          38.9010   -20.0460    49.5860 P.3          1 NAP755   0.0000
     2 O1A         38.2120   -18.7280    49.5540 O.co2        1 NAP755   0.0000
     3 O2A         38.2230   -21.2020    49.0280 O.co2        1 NAP755  -1.0000
     4 O5B         39.3460   -20.3010    51.1180 O.3          1 NAP755   0.0000
     5 C5B         40.0460   -21.5030    51.4820 C.3          1 NAP755   0.0000
     6 C4B         40.3510   -21.4680    52.9590 C.3          1 NAP755   0.0000
     7 O4B         39.0970   -21.4440    53.6600 O.3          1 NAP755   0.0000
     8 C3B         41.0860   -22.6720    53.4260 C.3          1 NAP755   0.0000
     9 O3B         42.0430   -22.3350    54.4510 O.3          1 NAP755   0.0000
    10 C2B         39.9790   -23.5800    53.9320 C.3          1 NAP755   0.0000
    11 O2B         40.3810   -24.6670    54.8370 O.3          1 NAP755   0.0000
    12 C1B         38.9900   -22.5780    54.5320 C.3          1 NAP755   0.0000
    13 N9A         37.5420   -22.9720    54.4710 N.pl3        1 NAP755   0.0000
    14 C8A         36.8810   -23.7280    53.5100 C.2          1 NAP755   0.0000
    15 N7A         35.6100   -23.8850    53.7560 N.2          1 NAP755   0.0000
    16 C5A         35.3980   -23.2080    54.9330 C.ar         1 NAP755   0.0000
    17 C6A         34.2440   -23.0050    55.7150 C.ar         1 NAP755   0.0000
    18 N6A         33.0650   -23.5130    55.3670 N.pl3        1 NAP755   0.0000
    19 N1A         34.3630   -22.2630    56.8590 N.ar         1 NAP755   0.0000
    20 C2A         35.5640   -21.7400    57.2240 C.ar         1 NAP755   0.0000
    21 N3A         36.7090   -21.8850    56.5430 N.ar         1 NAP755   0.0000
    22 C4A         36.5590   -22.6390    55.3920 C.ar         1 NAP755   0.0000
    23 O3          40.3820   -19.8420    48.9450 O.3          1 NAP755   0.0000
    24 PN          41.1260   -20.1780    47.5620 P.3          1 NAP755   0.0000
    25 O1N         42.2140   -19.1970    47.4010 O.co2        1 NAP755   0.0000
    26 O2N         40.0010   -20.1100    46.5460 O.co2        1 NAP755  -1.0000
    27 O5D         41.5550   -21.7230    47.4770 O.3          1 NAP755   0.0000
    28 C5D         42.0580   -22.2880    46.1850 C.3          1 NAP755   0.0000
    29 C4D         40.9950   -22.6050    45.0630 C.3          1 NAP755   0.0000
    30 O4D         40.5850   -21.3930    44.3820 O.3          1 NAP755   0.0000
    31 C3D         41.5590   -23.4610    43.8930 C.3          1 NAP755   0.0000
    32 O3D         40.5980   -24.1910    43.1370 O.3          1 NAP755   0.0000
    33 C2D         42.2120   -22.4870    43.0060 C.3          1 NAP755   0.0000
    34 O2D         42.3010   -22.9340    41.6800 O.3          1 NAP755   0.0000
    35 C1D         41.2600   -21.2640    43.1070 C.3          1 NAP755   0.0000
    36 N1N         42.1040   -20.0550    42.9730 N.ar         1 NAP755   1.0000
    37 C2N         42.3370   -19.6620    41.6320 C.ar         1 NAP755   0.0000
    38 C3N         43.1680   -18.5120    41.4080 C.ar         1 NAP755   0.0000
    39 C7N         43.4550   -18.0470    40.0470 C.2          1 NAP755   0.0000
    40 O7N         44.1740   -17.0690    39.8140 O.2          1 NAP755   0.0000
    41 N7N         42.9330   -18.6780    38.9830 N.am         1 NAP755   0.0000
    42 C4N         43.6990   -17.8440    42.5240 C.ar         1 NAP755   0.0000
    43 C5N         43.4610   -18.2300    43.8100 C.ar         1 NAP755   0.0000
    44 C6N         42.6650   -19.3370    44.0440 C.ar         1 NAP755   0.0000
    45 P2B         40.7370   -24.6250    56.4070 P.3          1 NAP755   0.0000
    46 O1X         39.8260   -23.7220    57.1650 O.co2        1 NAP755   0.0000
    47 O2X         42.1430   -24.1880    56.3400 O.co2        1 NAP755  -1.0000
    48 O3X         40.6160   -26.0490    56.7590 O.co2        1 NAP755  -1.0000
    49 H5B1        40.8999   -21.5629    50.9650 H            1 NAP755   0.0000
    50 H5B2        39.4754   -22.2981    51.2766 H            1 NAP755   0.0000
    51 H4B         40.8762   -20.6453    53.1767 H            1 NAP755   0.0000
    52 H3B         41.5532   -23.1044    52.6548 H            1 NAP755   0.0000
    53 H5          42.8153   -22.9687    54.4073 H            1 NAP755   0.0000
    54 H2B         39.5415   -23.9964    53.1350 H            1 NAP755   0.0000
    55 H1B         39.2531   -22.3345    55.4656 H            1 NAP755   0.0000
    56 H8A         37.3361   -24.1141    52.7076 H            1 NAP755   0.0000
    57 H6A1        32.2623   -23.3528    55.9415 H            1 NAP755   0.0000
    58 H6A2        32.9813   -24.0552    54.5309 H            1 NAP755   0.0000
    59 H2A         35.5953   -21.2045    58.0679 H            1 NAP755   0.0000
    60 H5D1        42.5331   -23.1421    46.3968 H            1 NAP755   0.0000
    61 H5D2        42.7081   -21.6306    45.8040 H            1 NAP755   0.0000
    62 H4D         40.1987   -23.0574    45.4646 H            1 NAP755   0.0000
    63 H3D         42.2464   -24.0936    44.2498 H            1 NAP755   0.0000
    64 H16         40.6327   -23.8975    42.1817 H            1 NAP755   0.0000
    65 H2D         43.1189   -22.2517    43.3554 H            1 NAP755   0.0000
    66 H18         43.1124   -22.5393    41.2489 H            1 NAP755   0.0000
    67 H1D         40.5905   -21.2937    42.3648 H            1 NAP755   0.0000
    68 H2N         41.9368   -20.1677    40.8678 H            1 NAP755   0.0000
    69 H7N1        43.1355   -18.3522    38.0595 H            1 NAP755   0.0000
    70 H7N2        42.3418   -19.4738    39.1140 H            1 NAP755   0.0000
    71 H4N         44.2805   -17.0456    42.3675 H            1 NAP755   0.0000
    72 H5N         43.8565   -17.7197    44.5737 H            1 NAP755   0.0000
    73 H6N         42.4869   -19.6293    44.9836 H            1 NAP755   0.0000
@<TRIPOS>BOND
     1    1    2      ar
     2    1    3      ar
     3    1    4       1
     4    1   23       1
     5    4    5       1
     6    5    6       1
     7    6    7       1
     8    6    8       1
     9    7   12       1
    10    8    9       1
    11    8   10       1
    12   10   11       1
    13   10   12       1
    14   11   45       1
    15   12   13       1
    16   13   14       1
    17   13   22       1
    18   14   15       2
    19   15   16       1
    20   16   17      ar
    21   16   22      ar
    22   17   18       1
    23   17   19      ar
    24   19   20      ar
    25   20   21      ar
    26   21   22      ar
    27   23   24       1
    28   24   25      ar
    29   24   26      ar
    30   24   27       1
    31   27   28       1
    32   28   29       1
    33   29   30       1
    34   29   31       1
    35   30   35       1
    36   31   32       1
    37   31   33       1
    38   33   34       1
    39   33   35       1
    40   35   36       1
    41   36   37      ar
    42   36   44      ar
    43   37   38      ar
    44   38   39       1
    45   38   42      ar
    46   39   40       2
    47   39   41      am
    48   42   43      ar
    49   43   44      ar
    50   45   46      ar
    51   45   47      ar
    52   45   48      ar
    53   43   72       1
    54    5   49       1
    55    5   50       1
    56    6   51       1
    57    8   52       1
    58    9   53       1
    59   10   54       1
    60   12   55       1
    61   14   56       1
    62   18   57       1
    63   18   58       1
    64   20   59       1
    65   44   73       1
    66   28   60       1
    67   28   61       1
    68   29   62       1
    69   31   63       1
    70   32   64       1
    71   33   65       1
    72   34   66       1
    73   35   67       1
    74   37   68       1
    75   41   69       1
    76   41   70       1
    77   42   71       1
@<TRIPOS>SUBSTRUCTURE
     1 NAP755      1 GROUP             4 A     NAP     0 **** NAP A 755
