@<TRIPOS>MOLECULE
3rpn_GTX_6_ligand
   54    53     1     0     0
SMALL
NO_CHARGES


@<TRIPOS>ATOM
     1 N1           1.4890   -67.0750    38.9200 N.4          1 GTX302   1.0000
     2 CA1          1.7180   -67.8150    37.6860 C.3          1 GTX302   0.0000
     3 C1           2.2210   -66.8680    36.6390 C.2          1 GTX302   0.0000
     4 O11          2.5170   -67.2830    35.4950 O.co2        1 GTX302   0.0000
     5 O12          2.3450   -65.6520    36.9010 O.co2        1 GTX302  -1.0000
     6 CB1          0.4140   -68.4300    37.1740 C.3          1 GTX302   0.0000
     7 CG1          0.6950   -69.4040    36.0290 C.3          1 GTX302   0.0000
     8 CD1         -0.5610   -70.1870    35.7590 C.2          1 GTX302   0.0000
     9 OE1         -1.6020   -70.1580    36.6890 O.2          1 GTX302   0.0000
    10 N2          -0.6630   -70.9030    34.6450 N.am         1 GTX302   0.0000
    11 CA2         -1.8380   -71.7420    34.4930 C.3          1 GTX302   0.0000
    12 C2          -1.6130   -73.1420    35.0170 C.2          1 GTX302   0.0000
    13 O2          -1.0900   -74.1680    34.2210 O.2          1 GTX302   0.0000
    14 CB2         -2.3760   -71.6860    33.0650 C.3          1 GTX302   0.0000
    15 SG2         -2.6850   -69.9830    32.4720 S.3          1 GTX302   0.0000
    16 C1S         -4.4110   -70.0220    33.0330 C.3          1 GTX302   0.0000
    17 C2S         -5.1150   -68.6810    32.8280 C.3          1 GTX302   0.0000
    18 C3S         -6.6260   -68.8380    32.6850 C.3          1 GTX302   0.0000
    19 C4S         -7.2990   -67.5380    32.2470 C.3          1 GTX302   0.0000
    20 C5S         -7.7650   -66.6870    33.4250 C.3          1 GTX302   0.0000
    21 C6S         -8.7040   -65.5750    32.9640 C.3          1 GTX302   0.0000
    22 N3          -1.9200   -73.3900    36.2840 N.am         1 GTX302   0.0000
    23 CA3         -1.3750   -74.5920    36.8930 C.3          1 GTX302   0.0000
    24 C3          -1.6460   -74.5980    38.3760 C.2          1 GTX302   0.0000
    25 O31         -1.6590   -75.6670    39.0170 O.co2        1 GTX302   0.0000
    26 O32         -1.8690   -73.5270    38.9690 O.co2        1 GTX302  -1.0000
    27 H1           0.5498   -66.7319    38.9335 H            1 GTX302   0.0000
    28 H2           1.6343   -67.6797    39.7031 H            1 GTX302   0.0000
    29 HA1          2.3933   -68.5355    37.8435 H            1 GTX302   0.0000
    30 HB11        -0.1872   -67.7012    36.8461 H            1 GTX302   0.0000
    31 HB12        -0.0341   -68.9209    37.9212 H            1 GTX302   0.0000
    32 HG11         1.4332   -70.0269    36.2879 H            1 GTX302   0.0000
    33 HG12         0.9598   -68.8957    35.2095 H            1 GTX302   0.0000
    34 H8           0.0429   -70.8656    33.9377 H            1 GTX302   0.0000
    35 HA2         -2.5454   -71.3380    35.0730 H            1 GTX302   0.0000
    36 HB21        -3.2361   -72.1949    33.0300 H            1 GTX302   0.0000
    37 HB22        -1.7087   -72.1171    32.4576 H            1 GTX302   0.0000
    38 H1S1        -4.4281   -70.2492    34.0067 H            1 GTX302   0.0000
    39 H1S2        -4.9012   -70.7252    32.5180 H            1 GTX302   0.0000
    40 H2S1        -4.7560   -68.2525    31.9988 H            1 GTX302   0.0000
    41 H2S2        -4.9254   -68.0943    33.6153 H            1 GTX302   0.0000
    42 H3S1        -7.0063   -69.1170    33.5668 H            1 GTX302   0.0000
    43 H3S2        -6.8138   -69.5444    32.0025 H            1 GTX302   0.0000
    44 H4S1        -8.0928   -67.7637    31.6822 H            1 GTX302   0.0000
    45 H4S2        -6.6462   -67.0064    31.7073 H            1 GTX302   0.0000
    46 H5S1        -6.9672   -66.2778    33.8678 H            1 GTX302   0.0000
    47 H5S2        -8.2465   -67.2706    34.0789 H            1 GTX302   0.0000
    48 H6S1        -8.9933   -65.0342    33.7538 H            1 GTX302   0.0000
    49 H6S2        -8.2272   -64.9848    32.3125 H            1 GTX302   0.0000
    50 H6S3        -9.5065   -65.9776    32.5236 H            1 GTX302   0.0000
    51 H25         -2.5077   -72.7696    36.8033 H            1 GTX302   0.0000
    52 HA31        -0.3875   -74.6213    36.7382 H            1 GTX302   0.0000
    53 HA32        -1.8016   -75.3949    36.4767 H            1 GTX302   0.0000
    54 H28          2.1257   -66.3056    38.9703 H            1 GTX302   0.0000
@<TRIPOS>BOND
     1    1    2       1
     2    2    3       1
     3    2    6       1
     4    3    4      ar
     5    3    5      ar
     6    6    7       1
     7    7    8       1
     8    8    9       2
     9    8   10      am
    10   10   11       1
    11   11   12       1
    12   11   14       1
    13   12   13       2
    14   12   22      am
    15   14   15       1
    16   15   16       1
    17   16   17       1
    18   17   18       1
    19   18   19       1
    20   19   20       1
    21   20   21       1
    22   22   23       1
    23   23   24       1
    24   24   25      ar
    25   24   26      ar
    26    1   27       1
    27    1   28       1
    28    2   29       1
    29    1   54       1
    30    6   30       1
    31    6   31       1
    32    7   32       1
    33    7   33       1
    34   10   34       1
    35   11   35       1
    36   14   36       1
    37   14   37       1
    38   16   38       1
    39   16   39       1
    40   17   40       1
    41   17   41       1
    42   18   42       1
    43   18   43       1
    44   19   44       1
    45   19   45       1
    46   20   46       1
    47   20   47       1
    48   21   48       1
    49   21   49       1
    50   21   50       1
    51   22   51       1
    52   23   52       1
    53   23   53       1
@<TRIPOS>SUBSTRUCTURE
     1 GTX302      1 GROUP             4 F     GTX     0 **** GTX F 302
