@<TRIPOS>MOLECULE
4s0v_SUV_1_ligand
   55    59     1     0     0
SMALL
USER_CHARGES


@<TRIPOS>ATOM
     1 C1          51.0650     6.8730    55.0610 C.2          1 SUV2001   0.0000
     2 N1          51.9280     5.8730    54.8550 N.pl3        1 SUV2001   0.0000
     3 O1          50.2740     7.3110    54.1180 O.2          1 SUV2001   0.0000
     4 CL1         47.5860    11.3940    57.0730 Cl           1 SUV2001   0.0000
     5 N2          50.8680     7.5530    56.1830 N.2          1 SUV2001   0.0000
     6 O2          55.5420     8.0300    54.0170 O.2          1 SUV2001   0.0000
     7 C3          49.9140     8.4460    55.9060 C.ar         1 SUV2001   0.0000
     8 N3          54.0680     6.4410    53.4330 N.am         1 SUV2001   0.0000
     9 C4          49.3320     9.3780    56.6600 C.ar         1 SUV2001   0.0000
    10 N4          54.7270     8.0960    50.4640 N.pl3        1 SUV2001   0.0000
    11 C5          48.3450    10.1920    56.1210 C.ar         1 SUV2001   0.0000
    12 N5          54.4370     7.8450    49.3030 N.2          1 SUV2001   0.0000
    13 C6          47.9730    10.0280    54.7960 C.ar         1 SUV2001   0.0000
    14 N6          55.8070     7.5870    50.7530 N.2          1 SUV2001   0.0000
    15 C7          48.6110     9.0440    54.0610 C.ar         1 SUV2001   0.0000
    16 C8          49.5520     8.2890    54.6260 C.ar         1 SUV2001   0.0000
    17 C11         51.8950     5.2840    53.5120 C.3          1 SUV2001   0.0000
    18 C12         52.8420     6.1110    52.6610 C.3          1 SUV2001   0.0000
    19 C14         54.8480     5.5280    54.3130 C.3          1 SUV2001   0.0000
    20 C15         53.9780     4.6240    55.1930 C.3          1 SUV2001   0.0000
    21 C16         52.8810     5.4380    55.8900 C.3          1 SUV2001   0.0000
    22 C17         54.5500     7.6950    53.3690 C.2          1 SUV2001   0.0000
    23 C19         53.8630     8.6680    52.6420 C.ar         1 SUV2001   0.0000
    24 C20         53.9590     8.8480    51.2540 C.ar         1 SUV2001   0.0000
    25 C21         53.2130     9.8570    50.6480 C.ar         1 SUV2001   0.0000
    26 C22         52.3860    10.6920    51.3930 C.ar         1 SUV2001   0.0000
    27 C23         52.2970    10.5140    52.7660 C.ar         1 SUV2001   0.0000
    28 C24         53.0340     9.5110    53.3790 C.ar         1 SUV2001   0.0000
    29 C27         55.3820     7.0900    48.7570 C.2          1 SUV2001   0.0000
    30 C28         56.2810     6.9220    49.7070 C.2          1 SUV2001   0.0000
    31 C29         51.4760    11.3360    53.5290 C.3          1 SUV2001   0.0000
    32 C30         55.8150     4.6700    53.4950 C.3          1 SUV2001   0.0000
    33 H1          49.6065     9.4911    57.6149 H            1 SUV2001   0.0000
    34 H2          47.2658    10.6026    54.3840 H            1 SUV2001   0.0000
    35 H3          48.3648     8.8993    53.1026 H            1 SUV2001   0.0000
    36 H4          50.9683     5.3251    53.1385 H            1 SUV2001   0.0000
    37 H5          52.1997     4.3321    53.5438 H            1 SUV2001   0.0000
    38 H6          53.0949     5.5896    51.8460 H            1 SUV2001   0.0000
    39 H7          52.3861     6.9577    52.3868 H            1 SUV2001   0.0000
    40 H8          55.3979     6.0987    54.9229 H            1 SUV2001   0.0000
    41 H9          54.5531     4.1881    55.8853 H            1 SUV2001   0.0000
    42 H10         53.5528     3.9214    54.6224 H            1 SUV2001   0.0000
    43 H11         52.4135     4.8708    56.5680 H            1 SUV2001   0.0000
    44 H12         53.2820     6.2350    56.3417 H            1 SUV2001   0.0000
    45 H13         53.2732     9.9835    49.6579 H            1 SUV2001   0.0000
    46 H14         51.8605    11.4139    50.9428 H            1 SUV2001   0.0000
    47 H15         52.9689     9.3907    54.3696 H            1 SUV2001   0.0000
    48 H16         55.4070     6.7267    47.8257 H            1 SUV2001   0.0000
    49 H17         57.1353     6.4052    49.6512 H            1 SUV2001   0.0000
    50 H18         51.5351    11.0665    54.4902 H            1 SUV2001   0.0000
    51 H19         51.7715    12.2862    53.4305 H            1 SUV2001   0.0000
    52 H20         50.5307    11.2467    53.2153 H            1 SUV2001   0.0000
    53 H21         56.3257     4.0670    54.1078 H            1 SUV2001   0.0000
    54 H22         55.2988     4.1191    52.8392 H            1 SUV2001   0.0000
    55 H23         56.4526     5.2630    53.0033 H            1 SUV2001   0.0000
@<TRIPOS>BOND
     1    1    2       1
     2    1    3       1
     3    1    5       2
     4    2   17       1
     5    2   21       1
     6    3   16       1
     7    4   11       1
     8    5    7       1
     9    6   22       2
    10    7    9      ar
    11    7   16      ar
    12    8   18       1
    13    8   19       1
    14    8   22      am
    15    9   11      ar
    16   10   12       1
    17   10   14       1
    18   10   24       1
    19   11   13      ar
    20   12   29       2
    21   13   15      ar
    22   14   30       2
    23   15   16      ar
    24   17   18       1
    25   19   20       1
    26   19   32       1
    27   20   21       1
    28   22   23       1
    29   23   24      ar
    30   23   28      ar
    31   24   25      ar
    32   25   26      ar
    33   26   27      ar
    34   27   28      ar
    35   27   31       1
    36   29   30       1
    37    9   33       1
    38   13   34       1
    39   15   35       1
    40   17   36       1
    41   17   37       1
    42   18   38       1
    43   18   39       1
    44   19   40       1
    45   20   41       1
    46   20   42       1
    47   21   43       1
    48   21   44       1
    49   25   45       1
    50   26   46       1
    51   28   47       1
    52   29   48       1
    53   30   49       1
    54   31   50       1
    55   31   51       1
    56   31   52       1
    57   32   53       1
    58   32   54       1
    59   32   55       1
@<TRIPOS>SUBSTRUCTURE
     1 SUV2001     1 GROUP             4 A     SUV     0 **** SUV A2001
