@<TRIPOS>MOLECULE
1tvc_FDA_1_ligand
   84    89     1     0     0
SMALL
NO_CHARGES


@<TRIPOS>ATOM
     1 PA           8.1840    12.3020     1.4740 P.3          1 FDA252   0.0000
     2 O1A          9.1600    13.2460     2.0570 O.co2        1 FDA252   0.0000
     3 O2A          8.4720    11.8460     0.2380 O.co2        1 FDA252  -1.0000
     4 O5B          6.9690    13.1950     1.5790 O.3          1 FDA252   0.0000
     5 C5B          5.9880    13.2710     0.4880 C.3          1 FDA252   0.0000
     6 C4B          5.2880    14.6690     0.4160 C.3          1 FDA252   0.0000
     7 O4B          4.8620    14.7670    -0.9850 O.3          1 FDA252   0.0000
     8 C3B          3.9870    14.9120     1.1960 C.3          1 FDA252   0.0000
     9 O3B          4.1190    15.2300     2.5370 O.3          1 FDA252   0.0000
    10 C2B          3.2870    15.9590     0.3460 C.3          1 FDA252   0.0000
    11 O2B          3.5810    17.2550     0.7740 O.3          1 FDA252   0.0000
    12 C1B          3.7580    15.7250    -1.0690 C.3          1 FDA252   0.0000
    13 N9A          2.8260    15.0570    -1.9640 N.pl3        1 FDA252   0.0000
    14 C8A          2.2430    13.8420    -1.7560 C.2          1 FDA252   0.0000
    15 N7A          1.4340    13.4810    -2.7390 N.2          1 FDA252   0.0000
    16 C5A          1.4810    14.4950    -3.6300 C.ar         1 FDA252   0.0000
    17 C6A          0.8070    14.7040    -4.9340 C.ar         1 FDA252   0.0000
    18 N6A         -0.0290    13.8480    -5.4730 N.pl3        1 FDA252   0.0000
    19 N1A          1.1130    15.8940    -5.5710 N.ar         1 FDA252   0.0000
    20 C2A          1.9740    16.8190    -5.0500 C.ar         1 FDA252   0.0000
    21 N3A          2.6280    16.7100    -3.8680 N.ar         1 FDA252   0.0000
    22 C4A          2.3530    15.5290    -3.1910 C.ar         1 FDA252   0.0000
    23 N1           4.2430     4.9140     2.6730 N.2          1 FDA252   0.0000
    24 C2           3.9930     5.0230     1.3700 C.2          1 FDA252   0.0000
    25 O2           4.1850     6.0280     0.7640 O.2          1 FDA252   0.0000
    26 N3           3.4670     3.9240     0.6230 N.pl3        1 FDA252   0.0000
    27 C4           3.1850     2.7030     1.2130 C.2          1 FDA252   0.0000
    28 O4           2.7540     1.8040     0.5210 O.2          1 FDA252   0.0000
    29 C4X          3.4300     2.5720     2.6400 C.2          1 FDA252   0.0000
    30 N5           3.1470     1.4110     3.2730 N.2          1 FDA252   0.0000
    31 C5X          3.3750     1.3190     4.6450 C.ar         1 FDA252   0.0000
    32 C6           3.0300     0.0960     5.2810 C.ar         1 FDA252   0.0000
    33 C7           3.2200    -0.0950     6.6450 C.ar         1 FDA252   0.0000
    34 C7M          2.8260    -1.4070     7.2510 C.3          1 FDA252   0.0000
    35 C8           3.7910     0.9880     7.4760 C.ar         1 FDA252   0.0000
    36 C8M          4.0150     0.8400     8.9600 C.3          1 FDA252   0.0000
    37 C9           4.1380     2.2250     6.8640 C.ar         1 FDA252   0.0000
    38 C9A          3.9310     2.3980     5.4490 C.ar         1 FDA252   0.0000
    39 N10          4.2350     3.6230     4.7220 N.pl3        1 FDA252   0.0000
    40 C10          3.9860     3.7400     3.3500 C.2          1 FDA252   0.0000
    41 C1'          4.8090     4.7380     5.4990 C.3          1 FDA252   0.0000
    42 C2'          6.2990     4.7440     5.2130 C.3          1 FDA252   0.0000
    43 O2'          6.9730     5.3120     6.3280 O.3          1 FDA252   0.0000
    44 C3'          6.6310     5.5230     3.9810 C.3          1 FDA252   0.0000
    45 O3'          7.9260     5.2250     3.5240 O.3          1 FDA252   0.0000
    46 C4'          6.5560     6.9900     4.2750 C.3          1 FDA252   0.0000
    47 O4'          5.2990     7.3890     4.8480 O.3          1 FDA252   0.0000
    48 C5'          6.8000     7.7050     3.0190 C.3          1 FDA252   0.0000
    49 O5'          7.0700     9.2300     3.3430 O.3          1 FDA252   0.0000
    50 P            8.3230     9.7680     2.8060 P.3          1 FDA252   0.0000
    51 O1P          9.3030     9.4500     3.9570 O.co2        1 FDA252   0.0000
    52 O2P          8.6430     9.1960     1.5820 O.co2        1 FDA252  -1.0000
    53 O3P          8.0290    11.1800     2.5840 O.3          1 FDA252   0.0000
    54 H5B1         5.2906    12.5691     0.6330 H            1 FDA252   0.0000
    55 H5B2         6.4569    13.1010    -0.3787 H            1 FDA252   0.0000
    56 H4B          5.9483    15.3912     0.6222 H            1 FDA252   0.0000
    57 H3B          3.4456    14.0731     1.1408 H            1 FDA252   0.0000
    58 H5           3.2131    15.3650     2.9383 H            1 FDA252   0.0000
    59 H2B          2.2987    15.8134     0.3922 H            1 FDA252   0.0000
    60 H7           3.1041    17.9143     0.1927 H            1 FDA252   0.0000
    61 H1B          4.0738    16.5825    -1.4751 H            1 FDA252   0.0000
    62 H8A          2.4096    13.2818    -0.9446 H            1 FDA252   0.0000
    63 H6A1        -0.4504    14.0498    -6.3571 H            1 FDA252   0.0000
    64 H6A2        -0.2446    12.9939    -4.9996 H            1 FDA252   0.0000
    65 H2A          2.1351    17.6471    -5.5870 H            1 FDA252   0.0000
    66 H13          3.2973     4.0401    -0.3556 H            1 FDA252   0.0000
    67 H14          2.6411    -0.6454     4.7342 H            1 FDA252   0.0000
    68 H7M1         3.0215    -1.3933     8.2316 H            1 FDA252   0.0000
    69 H7M2         1.8481    -1.5599     7.1081 H            1 FDA252   0.0000
    70 H7M3         3.3454    -2.1436     6.8178 H            1 FDA252   0.0000
    71 H8M1         4.4068     1.6851     9.3239 H            1 FDA252   0.0000
    72 H8M2         3.1423     0.6554     9.4121 H            1 FDA252   0.0000
    73 H8M3         4.6445     0.0814     9.1281 H            1 FDA252   0.0000
    74 H21          4.5224     2.9681     7.4118 H            1 FDA252   0.0000
    75 H1'1         4.6457     4.5980     6.4756 H            1 FDA252   0.0000
    76 H1'2         4.3994     5.6044     5.2134 H            1 FDA252   0.0000
    77 H2'          6.6094     3.8010     5.0931 H            1 FDA252   0.0000
    78 H25          6.3764     5.9795     6.7735 H            1 FDA252   0.0000
    79 H3'          5.9710     5.2986     3.2640 H            1 FDA252   0.0000
    80 H27          8.1569     4.2830     3.7676 H            1 FDA252   0.0000
    81 H4'          7.2854     7.2219     4.9185 H            1 FDA252   0.0000
    82 H29          5.3093     8.3738     5.0212 H            1 FDA252   0.0000
    83 H5'1         5.9992     7.6244     2.4256 H            1 FDA252   0.0000
    84 H5'2         7.5967     7.3132     2.5588 H            1 FDA252   0.0000
@<TRIPOS>BOND
     1    1    2      ar
     2    1    3      ar
     3    1    4       1
     4    1   53       1
     5    4    5       1
     6    5    6       1
     7    6    7       1
     8    6    8       1
     9    7   12       1
    10    8    9       1
    11    8   10       1
    12   10   11       1
    13   10   12       1
    14   12   13       1
    15   13   14       1
    16   13   22       1
    17   14   15       2
    18   15   16       1
    19   16   17      ar
    20   16   22      ar
    21   17   18       1
    22   17   19      ar
    23   19   20      ar
    24   20   21      ar
    25   21   22      ar
    26   23   24       1
    27   23   40       2
    28   24   25       2
    29   24   26       1
    30   26   27       1
    31   27   28       2
    32   27   29       1
    33   29   30       2
    34   29   40       1
    35   30   31       1
    36   31   32      ar
    37   31   38      ar
    38   32   33      ar
    39   33   34       1
    40   33   35      ar
    41   35   36       1
    42   35   37      ar
    43   37   38      ar
    44   38   39       1
    45   39   40       1
    46   39   41       1
    47   41   42       1
    48   42   43       1
    49   42   44       1
    50   44   45       1
    51   44   46       1
    52   46   47       1
    53   46   48       1
    54   48   49       1
    55   49   50       1
    56   50   51      ar
    57   50   52      ar
    58   50   53       1
    59   48   84       1
    60    5   54       1
    61    5   55       1
    62    6   56       1
    63    8   57       1
    64    9   58       1
    65   10   59       1
    66   11   60       1
    67   12   61       1
    68   14   62       1
    69   18   63       1
    70   18   64       1
    71   20   65       1
    72   26   66       1
    73   32   67       1
    74   34   68       1
    75   34   69       1
    76   34   70       1
    77   36   71       1
    78   36   72       1
    79   36   73       1
    80   37   74       1
    81   41   75       1
    82   41   76       1
    83   42   77       1
    84   43   78       1
    85   44   79       1
    86   45   80       1
    87   46   81       1
    88   47   82       1
    89   48   83       1
@<TRIPOS>SUBSTRUCTURE
     1 FDA252      1 GROUP             4 A     FDA     0 **** FDA A 252
