@<TRIPOS>MOLECULE
1dej_ATP_1_ligand
   43    45     1     0     0
SMALL
NO_CHARGES


@<TRIPOS>ATOM
     1 PG          22.6250     2.6900    72.1020 P.3          1 ATP1376   0.0000
     2 O1G         23.7490     2.7050    73.0690 O.co2        1 ATP1376   0.0000
     3 O2G         23.0520     2.8560    70.7050 O.co2        1 ATP1376  -1.0000
     4 O3G         21.7950     1.4950    72.2740 O.co2        1 ATP1376  -1.0000
     5 PB          20.6990     4.7970    71.5760 P.3          1 ATP1376   0.0000
     6 O1B         20.5180     4.3000    70.2160 O.co2        1 ATP1376   0.0000
     7 O2B         19.4510     5.1010    72.3000 O.co2        1 ATP1376  -1.0000
     8 O3B         21.6700     3.9380    72.4950 O.3          1 ATP1376   0.0000
     9 PA          21.4680     7.3390    70.4520 P.3          1 ATP1376   0.0000
    10 O1A         22.4050     7.3510    69.2820 O.co2        1 ATP1376   0.0000
    11 O2A         20.0860     7.5680    69.9280 O.co2        1 ATP1376  -1.0000
    12 O3A         21.5930     6.1340    71.4450 O.3          1 ATP1376   0.0000
    13 O5'         21.9630     8.5590    71.3500 O.3          1 ATP1376   0.0000
    14 C5'         21.4550     8.8110    72.6480 C.3          1 ATP1376   0.0000
    15 C4'         22.5670     9.4440    73.4770 C.3          1 ATP1376   0.0000
    16 O4'         23.2170    10.4760    72.7090 O.3          1 ATP1376   0.0000
    17 C3'         22.1460     9.9870    74.8280 C.3          1 ATP1376   0.0000
    18 O3'         23.1440     9.5790    75.8160 O.3          1 ATP1376   0.0000
    19 C2'         22.1400    11.5210    74.4850 C.3          1 ATP1376   0.0000
    20 O2'         22.4280    12.3040    75.6710 O.3          1 ATP1376   0.0000
    21 C1'         23.3640    11.5960    73.5330 C.3          1 ATP1376   0.0000
    22 N9          23.5310    12.8110    72.7900 N.pl3        1 ATP1376   0.0000
    23 C8          22.5610    13.4140    72.0330 C.2          1 ATP1376   0.0000
    24 N7          22.8320    14.5560    71.5070 N.2          1 ATP1376   0.0000
    25 C5          24.0640    14.8000    71.9350 C.ar         1 ATP1376   0.0000
    26 C6          24.8410    15.9070    71.7410 C.ar         1 ATP1376   0.0000
    27 N6          24.5040    16.9660    70.9760 N.pl3        1 ATP1376   0.0000
    28 N1          26.0780    15.9290    72.3050 N.ar         1 ATP1376   0.0000
    29 C2          26.4640    14.8350    73.0520 C.ar         1 ATP1376   0.0000
    30 N3          25.7300    13.7820    73.3410 N.ar         1 ATP1376   0.0000
    31 C4          24.5320    13.7900    72.7570 C.ar         1 ATP1376   0.0000
    32 H5'1        21.1638     7.9527    73.0706 H            1 ATP1376   0.0000
    33 H5'2        20.6764     9.4359    72.5918 H            1 ATP1376   0.0000
    34 H4'         23.2481     8.7317    73.6466 H            1 ATP1376   0.0000
    35 H3'         21.2327     9.6671    75.0800 H            1 ATP1376   0.0000
    36 H5          22.8844     8.6960    76.2070 H            1 ATP1376   0.0000
    37 H2'         21.2926    11.8069    74.0375 H            1 ATP1376   0.0000
    38 H7          21.9702    13.1905    75.6044 H            1 ATP1376   0.0000
    39 H1'         24.1870    11.4615    74.0848 H            1 ATP1376   0.0000
    40 H9          21.6709    12.9801    71.8939 H            1 ATP1376   0.0000
    41 H10         25.1326    17.7386    70.8869 H            1 ATP1376   0.0000
    42 H11         23.6257    16.9783    70.4981 H            1 ATP1376   0.0000
    43 H12         27.3975    14.8433    73.4105 H            1 ATP1376   0.0000
@<TRIPOS>BOND
     1    1    2      ar
     2    1    3      ar
     3    1    4      ar
     4    1    8       1
     5    5    6      ar
     6    5    7      ar
     7    5    8       1
     8    5   12       1
     9    9   10      ar
    10    9   11      ar
    11    9   12       1
    12    9   13       1
    13   13   14       1
    14   14   15       1
    15   15   16       1
    16   15   17       1
    17   16   21       1
    18   17   18       1
    19   17   19       1
    20   19   20       1
    21   19   21       1
    22   21   22       1
    23   22   23       1
    24   22   31       1
    25   23   24       2
    26   24   25       1
    27   25   26      ar
    28   25   31      ar
    29   26   27       1
    30   26   28      ar
    31   28   29      ar
    32   29   30      ar
    33   30   31      ar
    34   29   43       1
    35   27   42       1
    36   27   41       1
    37   23   40       1
    38   14   32       1
    39   14   33       1
    40   15   34       1
    41   17   35       1
    42   18   36       1
    43   19   37       1
    44   20   38       1
    45   21   39       1
@<TRIPOS>SUBSTRUCTURE
     1 ATP1376     1 GROUP             4 A     ATP     0 **** ATP A1376
