@<TRIPOS>MOLECULE
4pjj_ADP_1_ligand
   39    41     1     0     0
SMALL
NO_CHARGES


@<TRIPOS>ATOM
     1 PB         -13.6510   -20.6540    23.6910 P.3          1 ADP901   0.0000
     2 O1B        -14.6400   -19.7620    22.9390 O.co2        1 ADP901   0.0000
     3 O2B        -12.3140   -19.9710    23.8970 O.co2        1 ADP901  -1.0000
     4 O3B        -13.5770   -22.0260    22.9590 O.co2        1 ADP901  -1.0000
     5 PA         -13.8970   -20.5350    26.5870 P.3          1 ADP901   0.0000
     6 O1A        -13.9140   -18.9940    26.5810 O.co2        1 ADP901   0.0000
     7 O2A        -12.5640   -21.0560    26.9560 O.co2        1 ADP901  -1.0000
     8 O3A        -14.2890   -20.9820    25.1110 O.3          1 ADP901   0.0000
     9 O5'        -15.0990   -21.1210    27.4360 O.3          1 ADP901   0.0000
    10 C5'        -16.3680   -20.4580    27.5840 C.3          1 ADP901   0.0000
    11 C4'        -16.7610   -20.5050    29.0380 C.3          1 ADP901   0.0000
    12 O4'        -17.0140   -21.8710    29.4230 O.3          1 ADP901   0.0000
    13 C3'        -15.7140   -20.0160    30.0320 C.3          1 ADP901   0.0000
    14 O3'        -15.7120   -18.5970    30.1480 O.3          1 ADP901   0.0000
    15 C2'        -16.1440   -20.7230    31.3120 C.3          1 ADP901   0.0000
    16 O2'        -17.2240   -20.0540    31.9690 O.3          1 ADP901   0.0000
    17 C1'        -16.5970   -22.0810    30.7620 C.3          1 ADP901   0.0000
    18 N9         -15.5670   -23.1210    30.7780 N.pl3        1 ADP901   0.0000
    19 C8         -14.9090   -23.6590    29.7000 C.2          1 ADP901   0.0000
    20 N7         -14.1320   -24.6730    29.9990 N.2          1 ADP901   0.0000
    21 C5         -14.2770   -24.8020    31.3740 C.ar         1 ADP901   0.0000
    22 C6         -13.7230   -25.7050    32.3080 C.ar         1 ADP901   0.0000
    23 N6         -12.9350   -26.7250    31.9710 N.pl3        1 ADP901   0.0000
    24 N1         -14.0550   -25.5460    33.6130 N.ar         1 ADP901   0.0000
    25 C2         -14.8970   -24.5590    33.9470 C.ar         1 ADP901   0.0000
    26 N3         -15.4880   -23.6570    33.1540 N.ar         1 ADP901   0.0000
    27 C4         -15.1410   -23.8380    31.8700 C.ar         1 ADP901   0.0000
    28 H5'1       -17.0593   -20.9242    27.0319 H            1 ADP901   0.0000
    29 H5'2       -16.2891   -19.5068    27.2858 H            1 ADP901   0.0000
    30 H4'        -17.5987   -19.9735    29.1636 H            1 ADP901   0.0000
    31 H3'        -14.8077   -20.3355    29.7555 H            1 ADP901   0.0000
    32 H5         -15.4244   -18.3383    31.0702 H            1 ADP901   0.0000
    33 H2'        -15.3675   -20.8341    31.9323 H            1 ADP901   0.0000
    34 H7         -18.0938   -20.4128    31.6302 H            1 ADP901   0.0000
    35 H1'        -17.3809   -22.3979    31.2960 H            1 ADP901   0.0000
    36 H9         -15.0127   -23.3089    28.7690 H            1 ADP901   0.0000
    37 H10        -12.5722   -27.3315    32.6785 H            1 ADP901   0.0000
    38 H11        -12.7063   -26.8841    31.0106 H            1 ADP901   0.0000
    39 H12        -15.1133   -24.4863    34.9206 H            1 ADP901   0.0000
@<TRIPOS>BOND
     1    1    2      ar
     2    1    3      ar
     3    1    4      ar
     4    1    8       1
     5    5    6      ar
     6    5    7      ar
     7    5    8       1
     8    5    9       1
     9    9   10       1
    10   10   11       1
    11   11   12       1
    12   11   13       1
    13   12   17       1
    14   13   14       1
    15   13   15       1
    16   15   16       1
    17   15   17       1
    18   17   18       1
    19   18   19       1
    20   18   27       1
    21   19   20       2
    22   20   21       1
    23   21   22      ar
    24   21   27      ar
    25   22   23       1
    26   22   24      ar
    27   24   25      ar
    28   25   26      ar
    29   26   27      ar
    30   25   39       1
    31   23   38       1
    32   23   37       1
    33   10   28       1
    34   10   29       1
    35   11   30       1
    36   13   31       1
    37   14   32       1
    38   15   33       1
    39   16   34       1
    40   17   35       1
    41   19   36       1
@<TRIPOS>SUBSTRUCTURE
     1 ADP901      1 GROUP             4 A     ADP     0 **** ADP A 901
