@<TRIPOS>MOLECULE
2azn_NAP_1_ligand
   73    77     1     0     0
SMALL
NO_CHARGES


@<TRIPOS>ATOM
     1 PA          -7.2650   -51.3420   -45.1460 P.3          1 NAP2001   0.0000
     2 O1A         -7.2680   -51.1270   -43.6830 O.co2        1 NAP2001   0.0000
     3 O2A         -8.1920   -52.3550   -45.6970 O.co2        1 NAP2001  -1.0000
     4 O5B         -5.7660   -51.6710   -45.6380 O.3          1 NAP2001   0.0000
     5 C5B         -4.7320   -50.6980   -45.4660 C.3          1 NAP2001   0.0000
     6 C4B         -3.3990   -51.1090   -46.0990 C.3          1 NAP2001   0.0000
     7 O4B         -2.7710   -52.2730   -45.5430 O.3          1 NAP2001   0.0000
     8 C3B         -3.4540   -51.5010   -47.5750 C.3          1 NAP2001   0.0000
     9 O3B         -3.7560   -50.3540   -48.3730 O.3          1 NAP2001   0.0000
    10 C2B         -1.9850   -51.8860   -47.7620 C.3          1 NAP2001   0.0000
    11 O2B         -1.2470   -50.7000   -48.0830 O.3          1 NAP2001   0.0000
    12 C1B         -1.6030   -52.4120   -46.3730 C.3          1 NAP2001   0.0000
    13 N9A         -1.0920   -53.8040   -46.4230 N.pl3        1 NAP2001   0.0000
    14 C8A          0.1700   -54.1580   -46.1880 C.2          1 NAP2001   0.0000
    15 N7A          0.3110   -55.4720   -46.3510 N.2          1 NAP2001   0.0000
    16 C5A         -0.8760   -55.9630   -46.6900 C.ar         1 NAP2001   0.0000
    17 C6A         -1.3490   -57.2370   -46.9910 C.ar         1 NAP2001   0.0000
    18 N6A         -0.5330   -58.2850   -46.9450 N.pl3        1 NAP2001   0.0000
    19 N1A         -2.6420   -57.3920   -47.3140 N.ar         1 NAP2001   0.0000
    20 C2A         -3.4700   -56.3610   -47.3490 C.ar         1 NAP2001   0.0000
    21 N3A         -3.0530   -55.1380   -47.0660 N.ar         1 NAP2001   0.0000
    22 C4A         -1.7740   -54.9040   -46.7360 C.ar         1 NAP2001   0.0000
    23 O3          -7.5420   -49.9130   -45.8380 O.3          1 NAP2001   0.0000
    24 PN          -8.7510   -49.6180   -46.8630 P.3          1 NAP2001   0.0000
    25 O1N         -9.1790   -50.8670   -47.5300 O.co2        1 NAP2001   0.0000
    26 O2N         -8.3770   -48.4680   -47.7170 O.co2        1 NAP2001  -1.0000
    27 O5D         -9.9400   -49.1580   -45.8780 O.3          1 NAP2001   0.0000
    28 C5D        -11.1410   -48.5800   -46.4000 C.3          1 NAP2001   0.0000
    29 C4D        -12.1100   -48.1760   -45.2840 C.3          1 NAP2001   0.0000
    30 O4D        -12.4560   -49.2640   -44.4140 O.3          1 NAP2001   0.0000
    31 C3D        -11.5400   -47.1440   -44.3110 C.3          1 NAP2001   0.0000
    32 O3D        -11.6480   -45.8200   -44.8420 O.3          1 NAP2001   0.0000
    33 C2D        -12.4690   -47.2970   -43.1050 C.3          1 NAP2001   0.0000
    34 O2D        -13.4040   -46.2160   -43.0440 O.3          1 NAP2001   0.0000
    35 C1D        -13.2060   -48.6130   -43.3750 C.3          1 NAP2001   0.0000
    36 N1N        -13.3490   -49.4630   -42.1710 N.ar         1 NAP2001   1.0000
    37 C2N        -14.6200   -49.7350   -41.6420 C.ar         1 NAP2001   0.0000
    38 C3N        -14.7480   -50.5780   -40.5420 C.ar         1 NAP2001   0.0000
    39 C7N        -16.1250   -50.9210   -39.9640 C.2          1 NAP2001   0.0000
    40 O7N        -16.2460   -51.7420   -39.0550 O.2          1 NAP2001   0.0000
    41 N7N        -17.1530   -50.2850   -40.5180 N.am         1 NAP2001   0.0000
    42 C4N        -13.6080   -51.1390   -39.9750 C.ar         1 NAP2001   0.0000
    43 C5N        -12.3420   -50.8720   -40.4890 C.ar         1 NAP2001   0.0000
    44 C6N        -12.2090   -50.0340   -41.5900 C.ar         1 NAP2001   0.0000
    45 P2B          0.3630   -50.6190   -48.0540 P.3          1 NAP2001   0.0000
    46 O1X          0.7520   -49.1070   -48.4460 O.co2        1 NAP2001   0.0000
    47 O2X          0.7920   -50.8140   -46.5150 O.co2        1 NAP2001  -1.0000
    48 O3X          1.0070   -51.6040   -48.9520 O.co2        1 NAP2001  -1.0000
    49 H5B1        -4.5880   -50.5582   -44.4863 H            1 NAP2001   0.0000
    50 H5B2        -5.0308   -49.8405   -45.8847 H            1 NAP2001   0.0000
    51 H4B         -2.7640   -50.3420   -46.0068 H            1 NAP2001   0.0000
    52 H3B         -4.0767   -52.2643   -47.7473 H            1 NAP2001   0.0000
    53 H5          -2.9056   -49.9021   -48.6424 H            1 NAP2001   0.0000
    54 H2B         -1.8754   -52.5890   -48.4646 H            1 NAP2001   0.0000
    55 H1B         -0.8825   -51.8259   -46.0023 H            1 NAP2001   0.0000
    56 H8A          0.9033   -53.5300   -45.9276 H            1 NAP2001   0.0000
    57 H6A1        -0.8787   -59.1978   -47.1623 H            1 NAP2001   0.0000
    58 H6A2         0.4267   -58.1607   -46.6931 H            1 NAP2001   0.0000
    59 H2A         -4.4283   -56.5088   -47.5938 H            1 NAP2001   0.0000
    60 H5D1       -11.5906   -49.2481   -46.9929 H            1 NAP2001   0.0000
    61 H5D2       -10.9042   -47.7676   -46.9328 H            1 NAP2001   0.0000
    62 H4D        -12.9449   -47.8096   -45.6948 H            1 NAP2001   0.0000
    63 H3D        -10.5942   -47.3600   -44.0683 H            1 NAP2001   0.0000
    64 H16        -12.5219   -45.4202   -44.5654 H            1 NAP2001   0.0000
    65 H2D        -11.9410   -47.3554   -42.2578 H            1 NAP2001   0.0000
    66 H18        -13.2871   -45.7224   -42.1822 H            1 NAP2001   0.0000
    67 H1D        -14.1183   -48.4011   -43.7256 H            1 NAP2001   0.0000
    68 H2N        -15.4326   -49.3237   -42.0548 H            1 NAP2001   0.0000
    69 H7N1       -18.0825   -50.4582   -40.1923 H            1 NAP2001   0.0000
    70 H7N2       -16.9966   -49.6335   -41.2604 H            1 NAP2001   0.0000
    71 H4N        -13.6996   -51.7446   -39.1845 H            1 NAP2001   0.0000
    72 H5N        -11.5323   -51.2811   -40.0682 H            1 NAP2001   0.0000
    73 H6N        -11.3031   -49.8394   -41.9660 H            1 NAP2001   0.0000
@<TRIPOS>BOND
     1    1    2      ar
     2    1    3      ar
     3    1    4       1
     4    1   23       1
     5    4    5       1
     6    5    6       1
     7    6    7       1
     8    6    8       1
     9    7   12       1
    10    8    9       1
    11    8   10       1
    12   10   11       1
    13   10   12       1
    14   11   45       1
    15   12   13       1
    16   13   14       1
    17   13   22       1
    18   14   15       2
    19   15   16       1
    20   16   17      ar
    21   16   22      ar
    22   17   18       1
    23   17   19      ar
    24   19   20      ar
    25   20   21      ar
    26   21   22      ar
    27   23   24       1
    28   24   25      ar
    29   24   26      ar
    30   24   27       1
    31   27   28       1
    32   28   29       1
    33   29   30       1
    34   29   31       1
    35   30   35       1
    36   31   32       1
    37   31   33       1
    38   33   34       1
    39   33   35       1
    40   35   36       1
    41   36   37      ar
    42   36   44      ar
    43   37   38      ar
    44   38   39       1
    45   38   42      ar
    46   39   40       2
    47   39   41      am
    48   42   43      ar
    49   43   44      ar
    50   45   46      ar
    51   45   47      ar
    52   45   48      ar
    53   43   72       1
    54    5   49       1
    55    5   50       1
    56    6   51       1
    57    8   52       1
    58    9   53       1
    59   10   54       1
    60   12   55       1
    61   14   56       1
    62   18   57       1
    63   18   58       1
    64   20   59       1
    65   44   73       1
    66   28   60       1
    67   28   61       1
    68   29   62       1
    69   31   63       1
    70   32   64       1
    71   33   65       1
    72   34   66       1
    73   35   67       1
    74   37   68       1
    75   41   69       1
    76   41   70       1
    77   42   71       1
@<TRIPOS>SUBSTRUCTURE
     1 NAP2001     1 GROUP             4 A     NAP     0 **** NAP A2001
