@<TRIPOS>MOLECULE
3l2k_PXC_1_ligand
   27    29     1     0     0
SMALL
NO_CHARGES


@<TRIPOS>ATOM
     1 OAA         54.7970     8.6250    72.6120 O.co2        1 PXC400   0.0000
     2 OAB         64.4160     8.7790    75.6220 O.co2        1 PXC400   0.0000
     3 OAC         56.6790     8.3590    71.5430 O.co2        1 PXC400  -1.0000
     4 OAD         62.5240     9.0790    76.6890 O.co2        1 PXC400  -1.0000
     5 CAE         56.7140     9.2640    76.3310 C.ar         1 PXC400   0.0000
     6 CAF         62.4980     8.0870    71.9120 C.ar         1 PXC400   0.0000
     7 CAG         56.0740     9.0550    75.0960 C.ar         1 PXC400   0.0000
     8 CAH         63.1430     8.3090    73.1430 C.ar         1 PXC400   0.0000
     9 CAI         58.1140     9.2140    76.4070 C.ar         1 PXC400   0.0000
    10 CAJ         61.0890     8.1420    71.8380 C.ar         1 PXC400   0.0000
    11 NAK         58.9920     8.4600    72.9230 N.ar         1 PXC400   0.0000
    12 NAL         60.2200     8.8910    75.3190 N.ar         1 PXC400   1.0000
    13 CAM         56.0500     8.5750    72.5940 C.2          1 PXC400   0.0000
    14 CAN         63.1650     8.8350    75.6390 C.2          1 PXC400   0.0000
    15 CAO         56.8110     8.7830    73.9190 C.ar         1 PXC400   0.0000
    16 CAP         62.4070     8.5810    74.3200 C.ar         1 PXC400   0.0000
    17 CAQ         58.8700     8.9410    75.2530 C.ar         1 PXC400   0.0000
    18 CAR         60.3430     8.4100    72.9890 C.ar         1 PXC400   0.0000
    19 CAS         58.2200     8.7230    74.0010 C.ar         1 PXC400   0.0000
    20 CAT         60.9930     8.6340    74.2330 C.ar         1 PXC400   0.0000
    21 HAE         56.1731     9.4475    77.1518 H            1 PXC400   0.0000
    22 HAF         63.0360     7.8909    71.0922 H            1 PXC400   0.0000
    23 HAG         55.0761     9.0996    75.0487 H            1 PXC400   0.0000
    24 HAH         64.1414     8.2738    73.1865 H            1 PXC400   0.0000
    25 HAI         58.5738     9.3723    77.2808 H            1 PXC400   0.0000
    26 HAJ         60.6263     7.9896    70.9647 H            1 PXC400   0.0000
    27 HAL         60.6652     9.0492    76.2004 H            1 PXC400   0.0000
@<TRIPOS>BOND
     1    1   13      ar
     2    2   14      ar
     3    3   13      ar
     4    4   14      ar
     5    5    7      ar
     6    5    9      ar
     7    6    8      ar
     8    6   10      ar
     9    7   15      ar
    10    8   16      ar
    11    9   17      ar
    12   10   18      ar
    13   11   18      ar
    14   11   19      ar
    15   12   17      ar
    16   12   20      ar
    17   13   15       1
    18   14   16       1
    19   15   19      ar
    20   16   20      ar
    21   17   19      ar
    22   18   20      ar
    23   10   26       1
    24    9   25       1
    25    5   21       1
    26    6   22       1
    27    7   23       1
    28    8   24       1
    29   12   27       1
@<TRIPOS>SUBSTRUCTURE
     1 PXC400      1 GROUP             4 A     PXC     0 **** PXC A 400
