@<TRIPOS>MOLECULE
3n76_CA2_1_ligand
   39    40     1     0     0
SMALL
NO_CHARGES


@<TRIPOS>ATOM
     1 O2         -37.9190   -62.9070   -52.3590 O.co2        1 CA2147   0.0000
     2 C7         -37.7280   -61.6870   -52.0010 C.2          1 CA2147   0.0000
     3 O1         -36.5970   -61.1070   -51.9230 O.co2        1 CA2147  -1.0000
     4 C1         -38.9520   -60.8160   -51.6350 C.3          1 CA2147   0.0000
     5 O3         -39.0280   -59.6360   -52.5020 O.3          1 CA2147   0.0000
     6 C2         -38.7560   -60.5220   -50.2680 C.2          1 CA2147   0.0000
     7 C3         -39.8330   -60.2740   -49.3930 C.2          1 CA2147   0.0000
     8 C4         -41.3310   -60.4960   -49.7650 C.3          1 CA2147   0.0000
     9 O4         -42.2780   -59.4930   -49.2220 O.3          1 CA2147   0.0000
    10 C5         -41.4610   -60.6470   -51.2940 C.3          1 CA2147   0.0000
    11 O5         -42.6860   -61.2920   -51.6420 O.3          1 CA2147   0.0000
    12 C6         -40.3040   -61.5270   -51.7910 C.3          1 CA2147   0.0000
    13 C8         -39.3610   -60.1370   -48.1010 C.2          1 CA2147   0.0000
    14 C9         -40.0460   -59.9340   -46.9290 C.2          1 CA2147   0.0000
    15 C10        -39.1050   -59.7310   -45.9320 C.3          1 CA2147   0.0000
    16 O11        -39.1710   -60.5770   -44.8650 O.3          1 CA2147   0.0000
    17 C12        -38.0430   -61.0090   -44.2490 C.ar         1 CA2147   0.0000
    18 C17        -36.8250   -61.1310   -44.8980 C.ar         1 CA2147   0.0000
    19 C16        -35.6890   -61.6260   -44.2260 C.ar         1 CA2147   0.0000
    20 C15        -35.8210   -62.0260   -42.9010 C.ar         1 CA2147   0.0000
    21 C14        -37.0690   -61.9100   -42.2420 C.ar         1 CA2147   0.0000
    22 C13        -38.1800   -61.4060   -42.9150 C.ar         1 CA2147   0.0000
    23 H1         -38.1983   -59.0885   -52.3933 H            1 CA2147   0.0000
    24 H2         -37.8232   -60.4886   -49.9090 H            1 CA2147   0.0000
    25 H3         -41.5935   -61.3764   -49.3700 H            1 CA2147   0.0000
    26 H4         -41.7746   -58.8150   -48.6863 H            1 CA2147   0.0000
    27 H5         -41.4150   -59.7478   -51.7292 H            1 CA2147   0.0000
    28 H6         -43.2303   -60.6841   -52.2200 H            1 CA2147   0.0000
    29 H7         -40.2889   -62.3746   -51.2606 H            1 CA2147   0.0000
    30 H8         -40.4496   -61.7408   -52.7570 H            1 CA2147   0.0000
    31 H9         -38.3672   -60.1947   -48.0055 H            1 CA2147   0.0000
    32 H10        -41.0395   -59.9328   -46.8156 H            1 CA2147   0.0000
    33 H11        -39.2184   -58.7982   -45.5900 H            1 CA2147   0.0000
    34 H12        -38.1985   -59.8275   -46.3430 H            1 CA2147   0.0000
    35 H13        -36.7506   -60.8636   -45.8587 H            1 CA2147   0.0000
    36 H14        -34.8067   -61.6882   -44.6925 H            1 CA2147   0.0000
    37 H15        -35.0318   -62.3970   -42.4116 H            1 CA2147   0.0000
    38 H16        -37.1536   -62.1920   -41.2863 H            1 CA2147   0.0000
    39 H17        -39.0625   -61.3293   -42.4510 H            1 CA2147   0.0000
@<TRIPOS>BOND
     1    1    2      ar
     2    2    3      ar
     3    2    4       1
     4    4    5       1
     5    4    6       1
     6    4   12       1
     7    6    7       2
     8    7    8       1
     9    7   13       1
    10    8    9       1
    11    8   10       1
    12   10   11       1
    13   10   12       1
    14   13   14       2
    15   14   15       1
    16   15   16       1
    17   16   17       1
    18   17   18      ar
    19   17   22      ar
    20   18   19      ar
    21   19   20      ar
    22   20   21      ar
    23   21   22      ar
    24   22   39       1
    25    5   23       1
    26    6   24       1
    27    8   25       1
    28    9   26       1
    29   10   27       1
    30   11   28       1
    31   12   29       1
    32   12   30       1
    33   13   31       1
    34   14   32       1
    35   15   33       1
    36   15   34       1
    37   18   35       1
    38   19   36       1
    39   20   37       1
    40   21   38       1
@<TRIPOS>SUBSTRUCTURE
     1 CA2147      1 GROUP             4 A     CA2     0 **** CA2 A 147
