@<TRIPOS>MOLECULE
4lrj_ANP_2_ligand
   44    46     1     0     0
SMALL
NO_CHARGES


@<TRIPOS>ATOM
     1 PG          -9.6650    33.1470   -31.5890 P.3          1 ANP301   0.0000
     2 O1G         -8.5590    32.1710   -32.1420 O.co2        1 ANP301   0.0000
     3 O2G        -11.0370    32.4200   -31.5600 O.co2        1 ANP301  -1.0000
     4 O3G         -9.7530    34.3840   -32.4710 O.co2        1 ANP301  -1.0000
     5 PB          -9.6140    32.4790   -28.8910 P.3          1 ANP301   0.0000
     6 O1B         -8.4900    31.4230   -28.9260 O.co2        1 ANP301   0.0000
     7 O2B         -9.6270    33.1670   -27.5590 O.co2        1 ANP301  -1.0000
     8 N3B         -9.2730    33.6590   -30.0110 N.3          1 ANP301   0.0000
     9 PA         -11.5020    30.3470   -28.7670 P.3          1 ANP301   0.0000
    10 O1A        -10.4930    29.2730   -29.0640 O.co2        1 ANP301   0.0000
    11 O2A        -12.7580    30.0510   -29.5340 O.co2        1 ANP301  -1.0000
    12 O3A        -11.0190    31.7940   -29.1860 O.3          1 ANP301   0.0000
    13 O5'        -11.8420    30.2510   -27.2310 O.3          1 ANP301   0.0000
    14 C5'        -12.1700    31.3900   -26.4700 C.3          1 ANP301   0.0000
    15 C4'        -12.3590    31.1390   -25.0270 C.3          1 ANP301   0.0000
    16 O4'        -13.2770    30.0850   -24.8700 O.3          1 ANP301   0.0000
    17 C3'        -11.1270    30.6710   -24.3840 C.3          1 ANP301   0.0000
    18 O3'        -10.3770    31.7180   -23.8640 O.3          1 ANP301   0.0000
    19 C2'        -11.5970    29.8420   -23.3150 C.3          1 ANP301   0.0000
    20 O2'        -11.8930    30.6300   -22.1990 O.3          1 ANP301   0.0000
    21 C1'        -12.8230    29.2370   -23.8410 C.3          1 ANP301   0.0000
    22 N9         -12.5820    27.8650   -24.3050 N.pl3        1 ANP301   0.0000
    23 C8         -12.3190    27.5000   -25.5700 C.2          1 ANP301   0.0000
    24 N7         -12.1510    26.1750   -25.5920 N.2          1 ANP301   0.0000
    25 C5         -12.3000    25.6950   -24.3250 C.ar         1 ANP301   0.0000
    26 C6         -12.2330    24.4010   -23.7540 C.ar         1 ANP301   0.0000
    27 N6         -11.9500    23.2480   -24.5830 N.pl3        1 ANP301   0.0000
    28 N1         -12.4400    24.2730   -22.4380 N.ar         1 ANP301   0.0000
    29 C2         -12.7030    25.3300   -21.6560 C.ar         1 ANP301   0.0000
    30 N3         -12.7690    26.5650   -22.1710 N.ar         1 ANP301   0.0000
    31 C4         -12.5740    26.7730   -23.4980 C.ar         1 ANP301   0.0000
    32 H3B         -9.8036    34.4781   -29.7930 H            1 ANP301   0.0000
    33 H5'1       -13.0198    31.7722   -26.8330 H            1 ANP301   0.0000
    34 H5'2       -11.4326    32.0572   -26.5755 H            1 ANP301   0.0000
    35 H4'        -12.6961    31.9635   -24.5725 H            1 ANP301   0.0000
    36 H3'        -10.5796    30.1350   -25.0267 H            1 ANP301   0.0000
    37 H6          -9.4068    31.4768   -23.8872 H            1 ANP301   0.0000
    38 H2'        -10.9230    29.1396   -23.0863 H            1 ANP301   0.0000
    39 H8         -11.0688    31.1135   -21.9043 H            1 ANP301   0.0000
    40 H1'        -13.5096    29.2157   -23.1142 H            1 ANP301   0.0000
    41 H10        -12.2593    28.1129   -26.3579 H            1 ANP301   0.0000
    42 H11        -11.9041    22.3369   -24.1734 H            1 ANP301   0.0000
    43 H12        -11.8005    23.3629   -25.5651 H            1 ANP301   0.0000
    44 H13        -12.8517    25.1948   -20.6764 H            1 ANP301   0.0000
@<TRIPOS>BOND
     1    1    2      ar
     2    1    3      ar
     3    1    4      ar
     4    1    8       1
     5    5    6      ar
     6    5    7      ar
     7    5    8       1
     8    5   12       1
     9    9   10      ar
    10    9   11      ar
    11    9   12       1
    12    9   13       1
    13   13   14       1
    14   14   15       1
    15   15   16       1
    16   15   17       1
    17   16   21       1
    18   17   18       1
    19   17   19       1
    20   19   20       1
    21   19   21       1
    22   21   22       1
    23   22   23       1
    24   22   31       1
    25   23   24       2
    26   24   25       1
    27   25   26      ar
    28   25   31      ar
    29   26   27       1
    30   26   28      ar
    31   28   29      ar
    32   29   30      ar
    33   30   31      ar
    34   29   44       1
    35   27   43       1
    36   27   42       1
    37    8   32       1
    38   23   41       1
    39   14   33       1
    40   14   34       1
    41   15   35       1
    42   17   36       1
    43   18   37       1
    44   19   38       1
    45   20   39       1
    46   21   40       1
@<TRIPOS>SUBSTRUCTURE
     1 ANP301      1 GROUP             4 B     ANP     0 **** ANP B 301
