@<TRIPOS>MOLECULE
3cox_FAD_1_ligand
   84    89     1     0     0
SMALL
NO_CHARGES


@<TRIPOS>ATOM
     1 PA         -17.7490     9.0690    18.9740 P.3          1 FAD510   0.0000
     2 O1A        -16.6410     8.5420    19.7840 O.co2        1 FAD510   0.0000
     3 O2A        -17.7160    10.4630    18.4790 O.co2        1 FAD510  -1.0000
     4 O5B        -17.9670     8.0010    17.8030 O.3          1 FAD510   0.0000
     5 C5B        -18.8840     8.2660    16.7410 C.3          1 FAD510   0.0000
     6 C4B        -18.4440     7.3430    15.5560 C.3          1 FAD510   0.0000
     7 O4B        -19.4990     7.2060    14.5820 O.3          1 FAD510   0.0000
     8 C3B        -17.2440     7.9540    14.8320 C.3          1 FAD510   0.0000
     9 O3B        -16.2700     6.9130    14.6210 O.3          1 FAD510   0.0000
    10 C2B        -17.9100     8.4980    13.5790 C.3          1 FAD510   0.0000
    11 O2B        -17.0020     8.4740    12.5310 O.3          1 FAD510   0.0000
    12 C1B        -18.9800     7.4780    13.2860 C.3          1 FAD510   0.0000
    13 N9A        -20.0530     8.0700    12.4370 N.pl3        1 FAD510   0.0000
    14 C8A        -20.7030     9.2490    12.6460 C.2          1 FAD510   0.0000
    15 N7A        -21.6990     9.4430    11.8040 N.2          1 FAD510   0.0000
    16 C5A        -21.7000     8.2960    11.0060 C.ar         1 FAD510   0.0000
    17 C6A        -22.5230     7.8790     9.9370 C.ar         1 FAD510   0.0000
    18 N6A        -23.5990     8.6040     9.5130 N.pl3        1 FAD510   0.0000
    19 N1A        -22.3250     6.6520     9.4560 N.ar         1 FAD510   0.0000
    20 C2A        -21.4180     5.8510    10.0200 C.ar         1 FAD510   0.0000
    21 N3A        -20.4940     6.1720    10.9510 N.ar         1 FAD510   0.0000
    22 C4A        -20.7300     7.4360    11.4240 C.ar         1 FAD510   0.0000
    23 N1         -13.4860    12.7050    26.4380 N.2          1 FAD510   0.0000
    24 C2         -12.9640    12.1970    27.5770 C.2          1 FAD510   0.0000
    25 O2         -13.6980    11.7370    28.4440 O.2          1 FAD510   0.0000
    26 N3         -11.6010    12.3220    27.8380 N.pl3        1 FAD510   0.0000
    27 C4         -10.7170    13.0390    27.0790 C.2          1 FAD510   0.0000
    28 O4          -9.5280    13.0800    27.3240 O.2          1 FAD510   0.0000
    29 C4X        -11.2920    13.6630    25.9000 C.2          1 FAD510   0.0000
    30 N5         -10.5270    14.4100    25.0750 N.2          1 FAD510   0.0000
    31 C5X        -10.9990    14.8530    23.8860 C.ar         1 FAD510   0.0000
    32 C6         -10.1140    15.5260    22.9920 C.ar         1 FAD510   0.0000
    33 C7         -10.5380    15.7990    21.6880 C.ar         1 FAD510   0.0000
    34 C7M         -9.5700    16.4940    20.7060 C.3          1 FAD510   0.0000
    35 C8         -11.8790    15.3890    21.2790 C.ar         1 FAD510   0.0000
    36 C8M        -12.3970    15.6500    19.8810 C.3          1 FAD510   0.0000
    37 C9         -12.7620    14.7410    22.1590 C.ar         1 FAD510   0.0000
    38 C9A        -12.3520    14.4750    23.4920 C.ar         1 FAD510   0.0000
    39 N10        -13.1470    13.7890    24.3680 N.pl3        1 FAD510   0.0000
    40 C10        -12.6840    13.3930    25.5910 C.2          1 FAD510   0.0000
    41 C1'        -14.5710    13.4870    24.0400 C.3          1 FAD510   0.0000
    42 C2'        -14.7630    11.9810    23.7350 C.3          1 FAD510   0.0000
    43 O2'        -13.8500    11.6420    22.7010 O.3          1 FAD510   0.0000
    44 C3'        -16.1880    11.8340    23.2210 C.3          1 FAD510   0.0000
    45 O3'        -17.0440    12.1970    24.2910 O.3          1 FAD510   0.0000
    46 C4'        -16.5510    10.3910    22.7190 C.3          1 FAD510   0.0000
    47 O4'        -15.6160     9.8520    21.8090 O.3          1 FAD510   0.0000
    48 C5'        -18.0350    10.2880    22.2790 C.3          1 FAD510   0.0000
    49 O5'        -18.4010     8.8870    22.2020 O.3          1 FAD510   0.0000
    50 P          -19.5820     8.4260    21.2620 P.3          1 FAD510   0.0000
    51 O1P        -19.6410     6.9590    21.2720 O.co2        1 FAD510   0.0000
    52 O2P        -20.7580     9.2270    21.6310 O.co2        1 FAD510  -1.0000
    53 O3P        -19.1180     8.9410    19.7600 O.3          1 FAD510   0.0000
    54 H5B1       -18.8346     9.2274    16.4702 H            1 FAD510   0.0000
    55 H5B2       -19.8176     8.0471    17.0246 H            1 FAD510   0.0000
    56 H4B        -18.1967     6.4408    15.9095 H            1 FAD510   0.0000
    57 H3B        -16.8506     8.6984    15.3715 H            1 FAD510   0.0000
    58 H5         -16.6739     6.1863    14.0653 H            1 FAD510   0.0000
    59 H2B        -18.2917     9.4109    13.7235 H            1 FAD510   0.0000
    60 H7         -16.7034     7.5333    12.3702 H            1 FAD510   0.0000
    61 H1B        -18.5952     6.6556    12.8670 H            1 FAD510   0.0000
    62 H8A        -20.4511     9.8991    13.3629 H            1 FAD510   0.0000
    63 H6A1       -24.1564     8.2729     8.7516 H            1 FAD510   0.0000
    64 H6A2       -23.8299     9.4663     9.9637 H            1 FAD510   0.0000
    65 H2A        -21.4235     4.8982     9.7164 H            1 FAD510   0.0000
    66 H13        -11.2408    11.8507    28.6431 H            1 FAD510   0.0000
    67 H14         -9.2009    15.7993    23.2946 H            1 FAD510   0.0000
    68 H7M1       -10.0223    16.6162    19.8225 H            1 FAD510   0.0000
    69 H7M2        -9.3075    17.3867    21.0724 H            1 FAD510   0.0000
    70 H7M3        -8.7534    15.9292    20.5871 H            1 FAD510   0.0000
    71 H8M1       -13.3289    15.2965    19.7994 H            1 FAD510   0.0000
    72 H8M2       -12.3971    16.6342    19.7039 H            1 FAD510   0.0000
    73 H8M3       -11.8073    15.1917    19.2160 H            1 FAD510   0.0000
    74 H21        -13.6729    14.4690    21.8486 H            1 FAD510   0.0000
    75 H1'1       -14.8421    14.0201    23.2386 H            1 FAD510   0.0000
    76 H1'2       -15.1463    13.7390    24.8181 H            1 FAD510   0.0000
    77 H2'        -14.6116    11.4229    24.5508 H            1 FAD510   0.0000
    78 H25        -14.2304    10.8985    22.1510 H            1 FAD510   0.0000
    79 H3'        -16.3250    12.4785    22.4687 H            1 FAD510   0.0000
    80 H27        -17.2586    11.3864    24.8359 H            1 FAD510   0.0000
    81 H4'        -16.4828     9.8115    23.5311 H            1 FAD510   0.0000
    82 H29        -16.0719     9.6526    20.9416 H            1 FAD510   0.0000
    83 H5'1       -18.1506    10.7157    21.3825 H            1 FAD510   0.0000
    84 H5'2       -18.6170    10.7516    22.9471 H            1 FAD510   0.0000
@<TRIPOS>BOND
     1    1    2      ar
     2    1    3      ar
     3    1    4       1
     4    1   53       1
     5    4    5       1
     6    5    6       1
     7    6    7       1
     8    6    8       1
     9    7   12       1
    10    8    9       1
    11    8   10       1
    12   10   11       1
    13   10   12       1
    14   12   13       1
    15   13   14       1
    16   13   22       1
    17   14   15       2
    18   15   16       1
    19   16   17      ar
    20   16   22      ar
    21   17   18       1
    22   17   19      ar
    23   19   20      ar
    24   20   21      ar
    25   21   22      ar
    26   23   24       1
    27   23   40       2
    28   24   25       2
    29   24   26       1
    30   26   27       1
    31   27   28       2
    32   27   29       1
    33   29   30       2
    34   29   40       1
    35   30   31       1
    36   31   32      ar
    37   31   38      ar
    38   32   33      ar
    39   33   34       1
    40   33   35      ar
    41   35   36       1
    42   35   37      ar
    43   37   38      ar
    44   38   39       1
    45   39   40       1
    46   39   41       1
    47   41   42       1
    48   42   43       1
    49   42   44       1
    50   44   45       1
    51   44   46       1
    52   46   47       1
    53   46   48       1
    54   48   49       1
    55   49   50       1
    56   50   51      ar
    57   50   52      ar
    58   50   53       1
    59   48   84       1
    60    5   54       1
    61    5   55       1
    62    6   56       1
    63    8   57       1
    64    9   58       1
    65   10   59       1
    66   11   60       1
    67   12   61       1
    68   14   62       1
    69   18   63       1
    70   18   64       1
    71   20   65       1
    72   26   66       1
    73   32   67       1
    74   34   68       1
    75   34   69       1
    76   34   70       1
    77   36   71       1
    78   36   72       1
    79   36   73       1
    80   37   74       1
    81   41   75       1
    82   41   76       1
    83   42   77       1
    84   43   78       1
    85   44   79       1
    86   45   80       1
    87   46   81       1
    88   47   82       1
    89   48   83       1
@<TRIPOS>SUBSTRUCTURE
     1 FAD510      1 GROUP             4 A     FAD     0 **** FAD A 510
