@<TRIPOS>MOLECULE
2w2l_NAD_3_ligand
   70    74     1     0     0
SMALL
NO_CHARGES


@<TRIPOS>ATOM
     1 PA          72.3900    -4.7610    42.3720 P.3          1 NAD1346   0.0000
     2 O1A         73.8380    -4.7300    42.0790 O.co2        1 NAD1346   0.0000
     3 O2A         72.0270    -6.1910    42.5510 O.co2        1 NAD1346  -1.0000
     4 O5B         71.5810    -3.9070    41.2600 O.3          1 NAD1346   0.0000
     5 C5B         71.9310    -3.7140    39.8990 C.3          1 NAD1346   0.0000
     6 C4B         70.8380    -4.3730    39.0550 C.3          1 NAD1346   0.0000
     7 O4B         70.1910    -3.4860    38.1390 O.3          1 NAD1346   0.0000
     8 C3B         71.4280    -5.5210    38.2510 C.3          1 NAD1346   0.0000
     9 O3B         71.1150    -6.7530    38.8790 O.3          1 NAD1346   0.0000
    10 C2B         70.8480    -5.3450    36.8460 C.3          1 NAD1346   0.0000
    11 O2B         70.1420    -6.5040    36.4920 O.3          1 NAD1346   0.0000
    12 C1B         69.9280    -4.1180    36.8990 C.3          1 NAD1346   0.0000
    13 N9A         70.1790    -3.1470    35.7960 N.pl3        1 NAD1346   0.0000
    14 C8A         71.4050    -2.6440    35.4340 C.2          1 NAD1346   0.0000
    15 N7A         71.2550    -1.7880    34.3940 N.2          1 NAD1346   0.0000
    16 C5A         69.9520    -1.7260    34.0620 C.ar         1 NAD1346   0.0000
    17 C6A         69.2700    -1.0140    33.0770 C.ar         1 NAD1346   0.0000
    18 N6A         69.9050    -0.5600    32.0150 N.pl3        1 NAD1346   0.0000
    19 N1A         67.9080    -1.1610    32.9630 N.ar         1 NAD1346   0.0000
    20 C2A         67.2310    -2.0050    33.8310 C.ar         1 NAD1346   0.0000
    21 N3A         67.9240    -2.7050    34.7930 N.ar         1 NAD1346   0.0000
    22 C4A         69.2650    -2.5750    34.9250 C.ar         1 NAD1346   0.0000
    23 O3          72.1120    -3.8990    43.7120 O.3          1 NAD1346   0.0000
    24 PN          71.4210    -2.4320    43.8840 P.3          1 NAD1346   0.0000
    25 O1N         70.0730    -2.8230    44.3800 O.co2        1 NAD1346   0.0000
    26 O2N         72.3240    -1.5670    44.6890 O.co2        1 NAD1346  -1.0000
    27 O5D         71.3030    -1.6030    42.4800 O.3          1 NAD1346   0.0000
    28 C5D         72.0650    -0.4360    42.2010 C.3          1 NAD1346   0.0000
    29 C4D         71.2840     0.8770    42.3540 C.3          1 NAD1346   0.0000
    30 O4D         70.9620     1.2070    43.6960 O.3          1 NAD1346   0.0000
    31 C3D         72.1520     2.0400    41.9070 C.3          1 NAD1346   0.0000
    32 O3D         71.5070     2.7370    40.8980 O.3          1 NAD1346   0.0000
    33 C2D         72.1640     3.0620    43.0020 C.3          1 NAD1346   0.0000
    34 O2D         71.9770     4.3710    42.4860 O.3          1 NAD1346   0.0000
    35 C1D         71.0260     2.6220    43.9050 C.3          1 NAD1346   0.0000
    36 N1N         71.3690     3.0670    45.2870 N.ar         1 NAD1346   1.0000
    37 C2N         70.8220     4.2280    45.8120 C.ar         1 NAD1346   0.0000
    38 C3N         71.1640     4.6600    47.1110 C.ar         1 NAD1346   0.0000
    39 C7N         70.5300     5.8560    47.7980 C.2          1 NAD1346   0.0000
    40 O7N         71.1720     6.3130    48.9610 O.2          1 NAD1346   0.0000
    41 N7N         69.4010     6.4480    47.3470 N.am         1 NAD1346   0.0000
    42 C4N         72.0760     3.9090    47.8500 C.ar         1 NAD1346   0.0000
    43 C5N         72.6430     2.7570    47.3050 C.ar         1 NAD1346   0.0000
    44 C6N         72.2990     2.3490    46.0200 C.ar         1 NAD1346   0.0000
    45 H5B1        72.8153    -4.1404    39.7085 H            1 NAD1346   0.0000
    46 H5B2        71.9809    -2.7367    39.6930 H            1 NAD1346   0.0000
    47 H4B         70.1459    -4.7457    39.6731 H            1 NAD1346   0.0000
    48 H3B         72.4217    -5.4166    38.2109 H            1 NAD1346   0.0000
    49 H5          70.5846    -7.3221    38.2507 H            1 NAD1346   0.0000
    50 H2B         71.5874    -5.1858    36.1919 H            1 NAD1346   0.0000
    51 H7          69.1866    -6.2703    36.3117 H            1 NAD1346   0.0000
    52 H1B         68.9735    -4.4150    36.8715 H            1 NAD1346   0.0000
    53 H8A         72.2746    -2.8741    35.8708 H            1 NAD1346   0.0000
    54 H6A1        69.4061    -0.0502    31.3141 H            1 NAD1346   0.0000
    55 H6A2        70.8857    -0.7253    31.9102 H            1 NAD1346   0.0000
    56 H2A         66.2387    -2.1051    33.7580 H            1 NAD1346   0.0000
    57 H5D1        72.3967    -0.4957    41.2595 H            1 NAD1346   0.0000
    58 H5D2        72.8437    -0.4126    42.8279 H            1 NAD1346   0.0000
    59 H4D         70.4504     0.8431    41.8027 H            1 NAD1346   0.0000
    60 H3D         73.0724     1.7509    41.6438 H            1 NAD1346   0.0000
    61 H17         71.3605     3.6830    41.1873 H            1 NAD1346   0.0000
    62 H2D         73.0297     3.0146    43.5003 H            1 NAD1346   0.0000
    63 H19         71.9895     5.0305    43.2376 H            1 NAD1346   0.0000
    64 H1D         70.1714     3.0498    43.6106 H            1 NAD1346   0.0000
    65 H2N         70.1791     4.7641    45.2649 H            1 NAD1346   0.0000
    66 H7N1        69.0201     7.2343    47.8335 H            1 NAD1346   0.0000
    67 H7N2        68.9470     6.0995    46.5270 H            1 NAD1346   0.0000
    68 H4N         72.3249     4.1971    48.7747 H            1 NAD1346   0.0000
    69 H5N         73.2984     2.2230    47.8391 H            1 NAD1346   0.0000
    70 H6N         72.7245     1.5350    45.6247 H            1 NAD1346   0.0000
@<TRIPOS>BOND
     1    1    2      ar
     2    1    3      ar
     3    1    4       1
     4    1   23       1
     5    4    5       1
     6    5    6       1
     7    6    7       1
     8    6    8       1
     9    7   12       1
    10    8    9       1
    11    8   10       1
    12   10   11       1
    13   10   12       1
    14   12   13       1
    15   13   14       1
    16   13   22       1
    17   14   15       2
    18   15   16       1
    19   16   17      ar
    20   16   22      ar
    21   17   18       1
    22   17   19      ar
    23   19   20      ar
    24   20   21      ar
    25   21   22      ar
    26   23   24       1
    27   24   25      ar
    28   24   26      ar
    29   24   27       1
    30   27   28       1
    31   28   29       1
    32   29   30       1
    33   29   31       1
    34   30   35       1
    35   31   32       1
    36   31   33       1
    37   33   34       1
    38   33   35       1
    39   35   36       1
    40   36   37      ar
    41   36   44      ar
    42   37   38      ar
    43   38   39       1
    44   38   42      ar
    45   39   40       2
    46   39   41      am
    47   42   43      ar
    48   43   44      ar
    49   44   70       1
    50    5   45       1
    51    5   46       1
    52    6   47       1
    53    8   48       1
    54    9   49       1
    55   10   50       1
    56   11   51       1
    57   12   52       1
    58   14   53       1
    59   18   54       1
    60   18   55       1
    61   20   56       1
    62   43   69       1
    63   28   57       1
    64   28   58       1
    65   29   59       1
    66   31   60       1
    67   32   61       1
    68   33   62       1
    69   34   63       1
    70   35   64       1
    71   37   65       1
    72   41   66       1
    73   41   67       1
    74   42   68       1
@<TRIPOS>SUBSTRUCTURE
     1 NAD1346     1 GROUP             4 C     NAD     0 **** NAD C1346
