@<TRIPOS>MOLECULE
1k0l_FAD_1_ligand
   84    89     1     0     0
SMALL
NO_CHARGES


@<TRIPOS>ATOM
     1 PA          58.5280    92.6100   110.6790 P.3          1 FAD395   0.0000
     2 O1A         57.6730    93.3240   109.7110 O.co2        1 FAD395   0.0000
     3 O2A         59.9550    92.4420   110.3420 O.co2        1 FAD395  -1.0000
     4 O5B         58.4140    93.3600   112.0450 O.3          1 FAD395   0.0000
     5 C5B         59.2040    93.0910   113.1910 C.3          1 FAD395   0.0000
     6 C4B         59.3800    94.3380   114.0530 C.3          1 FAD395   0.0000
     7 O4B         60.1320    94.0350   115.2280 O.3          1 FAD395   0.0000
     8 C3B         60.0930    95.4700   113.3420 C.3          1 FAD395   0.0000
     9 O3B         59.2950    96.6420   113.4990 O.3          1 FAD395   0.0000
    10 C2B         61.4440    95.5040   114.0210 C.3          1 FAD395   0.0000
    11 O2B         62.0260    96.7980   114.0440 O.3          1 FAD395   0.0000
    12 C1B         61.1940    94.9980   115.4090 C.3          1 FAD395   0.0000
    13 N9A         62.3670    94.3850   116.1170 N.pl3        1 FAD395   0.0000
    14 C8A         63.4270    93.6640   115.6260 C.2          1 FAD395   0.0000
    15 N7A         64.3060    93.3320   116.5290 N.2          1 FAD395   0.0000
    16 C5A         63.8180    93.8630   117.7070 C.ar         1 FAD395   0.0000
    17 C6A         64.2980    93.8350   119.0350 C.ar         1 FAD395   0.0000
    18 N6A         65.4560    93.2590   119.3960 N.pl3        1 FAD395   0.0000
    19 N1A         63.5520    94.4350   119.9710 N.ar         1 FAD395   0.0000
    20 C2A         62.4170    95.0220   119.6040 C.ar         1 FAD395   0.0000
    21 N3A         61.8680    95.1220   118.4030 N.ar         1 FAD395   0.0000
    22 C4A         62.6330    94.5080   117.4740 C.ar         1 FAD395   0.0000
    23 N1          55.1890    89.6490   102.0330 N.2          1 FAD395   0.0000
    24 C2          53.9710    89.6420   101.4770 C.2          1 FAD395   0.0000
    25 O2          53.0700    88.9440   101.9300 O.2          1 FAD395   0.0000
    26 N3          53.7860    90.5170   100.4330 N.pl3        1 FAD395   0.0000
    27 C4          54.7190    91.4150    99.8940 C.2          1 FAD395   0.0000
    28 O4          54.3760    92.0830    98.9150 O.2          1 FAD395   0.0000
    29 C4X         56.0040    91.3990   100.5420 C.2          1 FAD395   0.0000
    30 N5          56.9690    92.2940   100.0720 N.2          1 FAD395   0.0000
    31 C5X         58.1940    92.2800   100.7440 C.ar         1 FAD395   0.0000
    32 C6          59.2080    93.1960   100.2720 C.ar         1 FAD395   0.0000
    33 C7          60.4860    93.3000   100.8840 C.ar         1 FAD395   0.0000
    34 C7M         61.5060    94.3250   100.3260 C.3          1 FAD395   0.0000
    35 C8          60.7930    92.4410   102.0470 C.ar         1 FAD395   0.0000
    36 C8M         62.1060    92.4940   102.8460 C.3          1 FAD395   0.0000
    37 C9          59.8290    91.5540   102.4990 C.ar         1 FAD395   0.0000
    38 C9A         58.5180    91.4430   101.8770 C.ar         1 FAD395   0.0000
    39 N10         57.4360    90.5550   102.3210 N.pl3        1 FAD395   0.0000
    40 C10         56.1560    90.4880   101.5990 C.2          1 FAD395   0.0000
    41 C1'         57.5210    89.9190   103.6610 C.3          1 FAD395   0.0000
    42 C2'         56.7070    90.6390   104.7870 C.3          1 FAD395   0.0000
    43 O2'         56.9490    92.0330   104.6690 O.3          1 FAD395   0.0000
    44 C3'         56.9180    90.0560   106.1680 C.3          1 FAD395   0.0000
    45 O3'         56.4850    88.6930   106.1520 O.3          1 FAD395   0.0000
    46 C4'         56.2740    90.8460   107.3010 C.3          1 FAD395   0.0000
    47 O4'         56.9870    92.0840   107.4340 O.3          1 FAD395   0.0000
    48 C5'         56.3430    90.0940   108.6110 C.3          1 FAD395   0.0000
    49 O5'         55.8170    90.9120   109.6250 O.3          1 FAD395   0.0000
    50 P           56.3250    90.7710   111.0910 P.3          1 FAD395   0.0000
    51 O1P         55.6550    91.8030   111.9260 O.co2        1 FAD395   0.0000
    52 O2P         56.2080    89.3600   111.4800 O.co2        1 FAD395  -1.0000
    53 O3P         57.9290    91.1490   110.9840 O.3          1 FAD395   0.0000
    54 H5B1        60.1041    92.7692   112.8972 H            1 FAD395   0.0000
    55 H5B2        58.7570    92.3805   113.7345 H            1 FAD395   0.0000
    56 H4B         58.4751    94.6600   114.3313 H            1 FAD395   0.0000
    57 H3B         60.2005    95.2539   112.3716 H            1 FAD395   0.0000
    58 H5          59.1937    96.8484   114.4722 H            1 FAD395   0.0000
    59 H2B         62.0628    94.8753   113.5501 H            1 FAD395   0.0000
    60 H7          61.4241    97.4255   114.5379 H            1 FAD395   0.0000
    61 H1B         60.8467    95.7533   115.9648 H            1 FAD395   0.0000
    62 H8A         63.5167    93.4157   114.6615 H            1 FAD395   0.0000
    63 H6A1        65.7434    93.2713   120.3537 H            1 FAD395   0.0000
    64 H6A2        66.0310    92.8177   118.7071 H            1 FAD395   0.0000
    65 H2A         61.9011    95.4519   120.3450 H            1 FAD395   0.0000
    66 H13         52.8807    90.5128   100.0083 H            1 FAD395   0.0000
    67 H14         59.0022    93.7781    99.4854 H            1 FAD395   0.0000
    68 H7M1        62.3509    94.2783   100.8588 H            1 FAD395   0.0000
    69 H7M2        61.7032    94.1119    99.3691 H            1 FAD395   0.0000
    70 H7M3        61.1220    95.2461   100.3901 H            1 FAD395   0.0000
    71 H8M1        62.0754    91.8185   103.5827 H            1 FAD395   0.0000
    72 H8M2        62.8741    92.2905   102.2389 H            1 FAD395   0.0000
    73 H8M3        62.2223    93.4075   103.2359 H            1 FAD395   0.0000
    74 H21         60.0420    90.9687   103.2813 H            1 FAD395   0.0000
    75 H1'1        58.4823    89.9016   103.9358 H            1 FAD395   0.0000
    76 H1'2        57.1799    88.9823   103.5821 H            1 FAD395   0.0000
    77 H2'         55.7410    90.5014   104.5679 H            1 FAD395   0.0000
    78 H25         56.1474    92.5387   104.9880 H            1 FAD395   0.0000
    79 H3'         57.9036    90.0495   106.3371 H            1 FAD395   0.0000
    80 H27         57.0198    88.1656   106.8121 H            1 FAD395   0.0000
    81 H4'         55.3183    91.0344   107.0748 H            1 FAD395   0.0000
    82 H29         56.9536    92.3873   108.3863 H            1 FAD395   0.0000
    83 H5'1        57.2944    89.8678   108.8200 H            1 FAD395   0.0000
    84 H5'2        55.8071    89.2523   108.5450 H            1 FAD395   0.0000
@<TRIPOS>BOND
     1    1    2      ar
     2    1    3      ar
     3    1    4       1
     4    1   53       1
     5    4    5       1
     6    5    6       1
     7    6    7       1
     8    6    8       1
     9    7   12       1
    10    8    9       1
    11    8   10       1
    12   10   11       1
    13   10   12       1
    14   12   13       1
    15   13   14       1
    16   13   22       1
    17   14   15       2
    18   15   16       1
    19   16   17      ar
    20   16   22      ar
    21   17   18       1
    22   17   19      ar
    23   19   20      ar
    24   20   21      ar
    25   21   22      ar
    26   23   24       1
    27   23   40       2
    28   24   25       2
    29   24   26       1
    30   26   27       1
    31   27   28       2
    32   27   29       1
    33   29   30       2
    34   29   40       1
    35   30   31       1
    36   31   32      ar
    37   31   38      ar
    38   32   33      ar
    39   33   34       1
    40   33   35      ar
    41   35   36       1
    42   35   37      ar
    43   37   38      ar
    44   38   39       1
    45   39   40       1
    46   39   41       1
    47   41   42       1
    48   42   43       1
    49   42   44       1
    50   44   45       1
    51   44   46       1
    52   46   47       1
    53   46   48       1
    54   48   49       1
    55   49   50       1
    56   50   51      ar
    57   50   52      ar
    58   50   53       1
    59   48   84       1
    60    5   54       1
    61    5   55       1
    62    6   56       1
    63    8   57       1
    64    9   58       1
    65   10   59       1
    66   11   60       1
    67   12   61       1
    68   14   62       1
    69   18   63       1
    70   18   64       1
    71   20   65       1
    72   26   66       1
    73   32   67       1
    74   34   68       1
    75   34   69       1
    76   34   70       1
    77   36   71       1
    78   36   72       1
    79   36   73       1
    80   37   74       1
    81   41   75       1
    82   41   76       1
    83   42   77       1
    84   43   78       1
    85   44   79       1
    86   45   80       1
    87   46   81       1
    88   47   82       1
    89   48   83       1
@<TRIPOS>SUBSTRUCTURE
     1 FAD395      1 GROUP             4 A     FAD     0 **** FAD A 395
