@<TRIPOS>MOLECULE
2xuq_TZ4_1_ligand
   91    98     1     0     0
SMALL
NO_CHARGES


@<TRIPOS>ATOM
     1 N3          39.9250    29.2690     7.7190 N.pl3        1 TZ41543   0.0000
     2 C19         39.8450    28.0290     8.3310 C.ar         1 TZ41543   0.0000
     3 C18         40.8400    27.5350     9.2390 C.ar         1 TZ41543   0.0000
     4 C17         40.6920    26.2810     9.8220 C.ar         1 TZ41543   0.0000
     5 C16         39.5710    25.3960     9.5670 C.ar         1 TZ41543   0.0000
     6 C14         38.5670    25.9090     8.6690 C.ar         1 TZ41543   0.0000
     7 C15         38.7610    27.2120     8.0630 C.ar         1 TZ41543   0.0000
     8 C7          37.2710    25.2910     8.6000 C.ar         1 TZ41543   0.0000
     9 C8          36.2790    25.9200     7.6500 C.ar         1 TZ41543   0.0000
    10 C9          35.4840    26.9880     8.1290 C.ar         1 TZ41543   0.0000
    11 C10         34.5860    27.6260     7.2770 C.ar         1 TZ41543   0.0000
    12 C11         34.4880    27.1870     5.9530 C.ar         1 TZ41543   0.0000
    13 C12         35.2800    26.1290     5.4640 C.ar         1 TZ41543   0.0000
    14 C13         36.1860    25.4900     6.3080 C.ar         1 TZ41543   0.0000
    15 C4          39.2580    24.2140    10.3800 C.ar         1 TZ41543   0.0000
    16 C3          40.3060    23.4280    10.9800 C.ar         1 TZ41543   0.0000
    17 C2          40.1630    22.1120    11.3460 C.ar         1 TZ41543   0.0000
    18 C1          38.9140    21.4750    11.1690 C.ar         1 TZ41543   0.0000
    19 N1          38.7570    20.1540    11.5330 N.pl3        1 TZ41543   0.0000
    20 C6          37.9580    23.5810    10.2380 C.ar         1 TZ41543   0.0000
    21 C5          37.8590    22.1970    10.6170 C.ar         1 TZ41543   0.0000
    22 N2          37.0080    24.1920     9.3640 N.ar         1 TZ41543   1.0000
    23 C20         35.6510    23.5780     9.2630 C.3          1 TZ41543   0.0000
    24 C21         35.4810    22.4370     8.2690 C.3          1 TZ41543   0.0000
    25 C22         34.0040    22.1270     8.0920 C.3          1 TZ41543   0.0000
    26 C23         33.4800    21.1390     9.1230 C.3          1 TZ41543   0.0000
    27 C24         32.4460    21.7440    10.0690 C.3          1 TZ41543   0.0000
    28 C25         31.0630    21.9680     9.4720 C.3          1 TZ41543   0.0000
    29 C26         29.9540    21.2110    10.1570 C.2          1 TZ41543   0.0000
    30 N4          30.0970    20.2420    11.1000 N.2          1 TZ41543   0.0000
    31 N5          28.8630    19.8760    11.3820 N.2          1 TZ41543   0.0000
    32 N6          27.9490    20.5970    10.6770 N.pl3        1 TZ41543   0.0000
    33 C27         28.6130    21.4450     9.8700 C.2          1 TZ41543   0.0000
    34 C28         26.4350    20.5570    10.6010 C.3          1 TZ41543   0.0000
    35 C29         25.4700    21.5930    11.2940 C.3          1 TZ41543   0.0000
    36 N7          25.1900    21.2430    12.7090 N.pl3        1 TZ41543   0.0000
    37 C30         26.3260    21.1250    13.4880 C.ar         1 TZ41543   0.0000
    38 C31         26.5120    19.9700    14.3010 C.ar         1 TZ41543   0.0000
    39 C32         25.7010    18.7790    14.2250 C.ar         1 TZ41543   0.0000
    40 C33         27.7170    19.8730    15.0860 C.ar         1 TZ41543   0.0000
    41 C34         28.0690    18.6570    15.7930 C.ar         1 TZ41543   0.0000
    42 C35         27.2640    17.5620    15.6750 C.ar         1 TZ41543   0.0000
    43 C36         26.0660    17.6270    14.8860 C.ar         1 TZ41543   0.0000
    44 N8          28.6860    20.8160    15.0240 N.ar         1 TZ41543   0.0000
    45 C37         28.5370    21.8740    14.2120 C.ar         1 TZ41543   0.0000
    46 C38         29.6110    22.8300    14.2080 C.ar         1 TZ41543   0.0000
    47 C39         27.3400    22.1070    13.4640 C.ar         1 TZ41543   0.0000
    48 C40         27.1670    23.3920    12.8050 C.ar         1 TZ41543   0.0000
    49 C41         28.1830    24.3040    12.8410 C.ar         1 TZ41543   0.0000
    50 C42         29.4710    23.9460    13.4020 C.ar         1 TZ41543   0.0000
    51 H1          39.2032    29.5654     7.0935 H            1 TZ41543   0.0000
    52 H2          40.7045    29.8679     7.9026 H            1 TZ41543   0.0000
    53 H3          41.6415    28.0934     9.4531 H            1 TZ41543   0.0000
    54 H4          41.4011    25.9706    10.4552 H            1 TZ41543   0.0000
    55 H5          38.0728    27.5384     7.4151 H            1 TZ41543   0.0000
    56 H6          35.5671    27.2850     9.0803 H            1 TZ41543   0.0000
    57 H7          34.0221    28.3836     7.6057 H            1 TZ41543   0.0000
    58 H8          33.8395    27.6351     5.3377 H            1 TZ41543   0.0000
    59 H9          35.1919    25.8369     4.5117 H            1 TZ41543   0.0000
    60 H10         36.7583    24.7426     5.9706 H            1 TZ41543   0.0000
    61 H11         41.1903    23.8669    11.1394 H            1 TZ41543   0.0000
    62 H12         40.9354    21.6093    11.7341 H            1 TZ41543   0.0000
    63 H13         37.8735    19.7025    11.4081 H            1 TZ41543   0.0000
    64 H14         39.5267    19.6476    11.9219 H            1 TZ41543   0.0000
    65 H15         36.9867    21.7287    10.4767 H            1 TZ41543   0.0000
    66 H16         35.0110    24.3015     9.0042 H            1 TZ41543   0.0000
    67 H17         35.4101    23.2280    10.1682 H            1 TZ41543   0.0000
    68 H18         35.9523    21.6245     8.6120 H            1 TZ41543   0.0000
    69 H19         35.8727    22.7026     7.3881 H            1 TZ41543   0.0000
    70 H20         33.8660    21.7402     7.1802 H            1 TZ41543   0.0000
    71 H21         33.4868    22.9789     8.1745 H            1 TZ41543   0.0000
    72 H22         34.2517    20.8080     9.6661 H            1 TZ41543   0.0000
    73 H23         33.0581    20.3712     8.6409 H            1 TZ41543   0.0000
    74 H24         32.7938    22.6282    10.3809 H            1 TZ41543   0.0000
    75 H25         32.3478    21.1295    10.8518 H            1 TZ41543   0.0000
    76 H26         31.0876    21.6854     8.5131 H            1 TZ41543   0.0000
    77 H27         30.8541    22.9444     9.5264 H            1 TZ41543   0.0000
    78 H28         28.2298    22.0950     9.2138 H            1 TZ41543   0.0000
    79 H29         26.1728    19.6631    10.9646 H            1 TZ41543   0.0000
    80 H30         26.2153    20.5979     9.6263 H            1 TZ41543   0.0000
    81 H31         24.6060    21.6140    10.7909 H            1 TZ41543   0.0000
    82 H32         25.8949    22.4977    11.2646 H            1 TZ41543   0.0000
    83 H33         24.2659    21.1054    13.0656 H            1 TZ41543   0.0000
    84 H34         24.8603    18.7901    13.6836 H            1 TZ41543   0.0000
    85 H35         28.8918    18.6215    16.3602 H            1 TZ41543   0.0000
    86 H36         27.5091    16.7111    16.1396 H            1 TZ41543   0.0000
    87 H37         25.4834    16.8174    14.8148 H            1 TZ41543   0.0000
    88 H38         30.4288    22.6934    14.7670 H            1 TZ41543   0.0000
    89 H39         26.3130    23.6055    12.3305 H            1 TZ41543   0.0000
    90 H40         28.0376    25.2244    12.4781 H            1 TZ41543   0.0000
    91 H41         30.2699    24.5138    13.2036 H            1 TZ41543   0.0000
@<TRIPOS>BOND
     1    1    2       1
     2    2    3      ar
     3    2    7      ar
     4    3    4      ar
     5    4    5      ar
     6    5    6      ar
     7    5   15      ar
     8    6    7      ar
     9    6    8      ar
    10    8    9       1
    11    8   22      ar
    12    9   10      ar
    13    9   14      ar
    14   10   11      ar
    15   11   12      ar
    16   12   13      ar
    17   13   14      ar
    18   15   16      ar
    19   15   20      ar
    20   16   17      ar
    21   17   18      ar
    22   18   19       1
    23   18   21      ar
    24   20   21      ar
    25   20   22      ar
    26   22   23       1
    27   23   24       1
    28   24   25       1
    29   25   26       1
    30   26   27       1
    31   27   28       1
    32   28   29       1
    33   29   30       1
    34   29   33       2
    35   30   31       2
    36   31   32       1
    37   32   33       1
    38   32   34       1
    39   34   35       1
    40   35   36       1
    41   36   37       1
    42   37   38      ar
    43   37   47      ar
    44   38   39      ar
    45   38   40      ar
    46   39   43      ar
    47   40   41      ar
    48   40   44      ar
    49   41   42      ar
    50   42   43      ar
    51   44   45      ar
    52   45   46      ar
    53   45   47      ar
    54   46   50      ar
    55   47   48      ar
    56   48   49      ar
    57   49   50      ar
    58    1   51       1
    59    1   52       1
    60    3   53       1
    61    4   54       1
    62    7   55       1
    63   10   56       1
    64   11   57       1
    65   12   58       1
    66   13   59       1
    67   14   60       1
    68   16   61       1
    69   17   62       1
    70   19   63       1
    71   19   64       1
    72   21   65       1
    73   23   66       1
    74   23   67       1
    75   24   68       1
    76   24   69       1
    77   25   70       1
    78   25   71       1
    79   26   72       1
    80   26   73       1
    81   27   74       1
    82   27   75       1
    83   28   76       1
    84   28   77       1
    85   33   78       1
    86   34   79       1
    87   34   80       1
    88   35   81       1
    89   35   82       1
    90   36   83       1
    91   39   84       1
    92   41   85       1
    93   42   86       1
    94   43   87       1
    95   46   88       1
    96   48   89       1
    97   49   90       1
    98   50   91       1
@<TRIPOS>SUBSTRUCTURE
     1 TZ41543     1 GROUP             4 A     TZ4     0 **** TZ4 A1543
