@<TRIPOS>MOLECULE
4kfg_DOO_2_ligand
   56    61     1     0     0
SMALL
NO_CHARGES


@<TRIPOS>ATOM
     1 F30          3.9830    22.2380   -24.3720 F            1 DOO302   0.0000
     2 C6           2.9270    21.4530   -24.2250 C.ar         1 DOO302   0.0000
     3 C1           2.8400    20.3510   -25.0750 C.ar         1 DOO302   0.0000
     4 C5           1.9580    21.8090   -23.2620 C.ar         1 DOO302   0.0000
     5 C4           0.8330    21.0020   -23.1610 C.ar         1 DOO302   0.0000
     6 C7          -0.4030    20.9810   -22.3480 C.ar         1 DOO302   0.0000
     7 C13         -0.9980    21.8330   -21.2900 C.ar         1 DOO302   0.0000
     8 N22         -0.3570    22.8370   -20.6010 N.pl3        1 DOO302   0.0000
     9 C26         -0.9940    23.6830   -19.5960 C.3          1 DOO302   0.0000
    10 C25         -0.0510    23.4310   -18.4040 C.3          1 DOO302   0.0000
    11 C27         -0.5670    22.3360   -17.4670 C.3          1 DOO302   0.0000
    12 C28          0.6220    21.4610   -17.1010 C.3          1 DOO302   0.0000
    13 N29          1.5730    21.6870   -18.1920 N.4          1 DOO302   1.0000
    14 C24          1.2940    22.9360   -18.9210 C.3          1 DOO302   0.0000
    15 C23          1.0990    22.8010   -20.4430 C.3          1 DOO302   0.0000
    16 N12         -2.2000    21.4160   -20.8380 N.ar         1 DOO302   0.0000
    17 C11         -2.8420    20.3360   -21.3390 C.ar         1 DOO302   0.0000
    18 N10         -2.3490    19.5290   -22.2840 N.ar         1 DOO302   0.0000
    19 C8          -1.1670    19.8230   -22.8130 C.ar         1 DOO302   0.0000
    20 N9          -0.4720    19.2020   -23.7580 N.pl3        1 DOO302   0.0000
    21 C3           0.6850    19.8390   -24.0300 C.ar         1 DOO302   0.0000
    22 C2           1.7280    19.5230   -25.0030 C.ar         1 DOO302   0.0000
    23 N31          1.5310    18.4300   -25.7610 N.pl3        1 DOO302   0.0000
    24 C32          2.4760    18.0860   -26.7990 C.3          1 DOO302   0.0000
    25 O14         -4.0700    19.9760   -20.9220 O.3          1 DOO302   0.0000
    26 C15         -4.7760    20.7320   -20.0260 C.ar         1 DOO302   0.0000
    27 C20         -6.0080    21.3180   -20.3370 C.ar         1 DOO302   0.0000
    28 N19         -6.6390    22.0220   -19.3670 N.ar         1 DOO302   0.0000
    29 C18         -6.0810    22.1390   -18.1260 C.ar         1 DOO302   0.0000
    30 C21         -6.7870    22.9060   -17.0250 C.3          1 DOO302   0.0000
    31 N17         -4.8960    21.5530   -17.8330 N.ar         1 DOO302   0.0000
    32 C16         -4.2320    20.8610   -18.7580 C.ar         1 DOO302   0.0000
    33 H1           3.5711    20.1591   -25.7297 H            1 DOO302   0.0000
    34 H2           2.0773    22.6105   -22.6760 H            1 DOO302   0.0000
    35 H3          -1.9288    23.3872   -19.3995 H            1 DOO302   0.0000
    36 H4          -0.9992    24.6450   -19.8690 H            1 DOO302   0.0000
    37 H5           0.0773    24.2798   -17.8911 H            1 DOO302   0.0000
    38 H6          -1.2650    21.7896   -17.9300 H            1 DOO302   0.0000
    39 H7          -0.9573    22.7462   -16.6427 H            1 DOO302   0.0000
    40 H8           0.3549    20.4984   -17.0552 H            1 DOO302   0.0000
    41 H9           1.0132    21.7405   -16.2241 H            1 DOO302   0.0000
    42 H10          1.5172    20.9208   -18.8321 H            1 DOO302   0.0000
    43 H11          2.0049    23.6117   -18.7260 H            1 DOO302   0.0000
    44 H12          1.5309    23.5613   -20.9283 H            1 DOO302   0.0000
    45 H13          1.4742    21.9363   -20.7769 H            1 DOO302   0.0000
    46 H14         -0.7703    18.3631   -24.2133 H            1 DOO302   0.0000
    47 H15          0.7286    17.8537   -25.6061 H            1 DOO302   0.0000
    48 H16          2.1758    17.2507   -27.2595 H            1 DOO302   0.0000
    49 H17          2.5284    18.8321   -27.4627 H            1 DOO302   0.0000
    50 H18          3.3776    17.9372   -26.3929 H            1 DOO302   0.0000
    51 H19         -6.4102    21.2201   -21.2473 H            1 DOO302   0.0000
    52 H20         -6.2312    22.8837   -16.1940 H            1 DOO302   0.0000
    53 H21         -6.9197    23.8547   -17.3120 H            1 DOO302   0.0000
    54 H22         -7.6758    22.4854   -16.8429 H            1 DOO302   0.0000
    55 H23         -3.3517    20.4398   -18.5398 H            1 DOO302   0.0000
    56 H24          2.4959    21.7359   -17.8102 H            1 DOO302   0.0000
@<TRIPOS>BOND
     1    1    2       1
     2    2    3      ar
     3    2    4      ar
     4    3   22      ar
     5    4    5      ar
     6    5    6       1
     7    5   21      ar
     8    6    7      ar
     9    6   19      ar
    10    7    8       1
    11    7   16      ar
    12    8    9       1
    13    8   15       1
    14    9   10       1
    15   10   11       1
    16   10   14       1
    17   11   12       1
    18   12   13       1
    19   13   14       1
    20   14   15       1
    21   16   17      ar
    22   17   18      ar
    23   17   25       1
    24   18   19      ar
    25   19   20       1
    26   20   21       1
    27   21   22      ar
    28   22   23       1
    29   23   24       1
    30   25   26       1
    31   26   27      ar
    32   26   32      ar
    33   27   28      ar
    34   28   29      ar
    35   29   30       1
    36   29   31      ar
    37   31   32      ar
    38    3   33       1
    39    4   34       1
    40    9   35       1
    41    9   36       1
    42   10   37       1
    43   11   38       1
    44   11   39       1
    45   12   40       1
    46   12   41       1
    47   13   42       1
    48   14   43       1
    49   15   44       1
    50   15   45       1
    51   20   46       1
    52   23   47       1
    53   24   48       1
    54   24   49       1
    55   24   50       1
    56   27   51       1
    57   30   52       1
    58   30   53       1
    59   30   54       1
    60   32   55       1
    61   13   56       1
@<TRIPOS>SUBSTRUCTURE
     1 DOO302      1 GROUP             4 B     DOO     0 **** DOO B 302
