@<TRIPOS>MOLECULE
1grb_FAD_1_ligand
   84    89     1     0     0
SMALL
NO_CHARGES


@<TRIPOS>ATOM
     1 PA          58.8510    50.9030    20.0620 P.3          1 FAD479   0.0000
     2 O1A         58.9520    52.1160    19.2360 O.co2        1 FAD479   0.0000
     3 O2A         59.4050    49.5560    19.6760 O.co2        1 FAD479  -1.0000
     4 O5B         57.2640    50.6240    20.3360 O.3          1 FAD479   0.0000
     5 C5B         56.3640    51.8520    20.4910 C.3          1 FAD479   0.0000
     6 C4B         55.0910    51.2920    19.8560 C.3          1 FAD479   0.0000
     7 O4B         53.9850    52.0840    20.3810 O.3          1 FAD479   0.0000
     8 C3B         54.9740    51.3350    18.3270 C.3          1 FAD479   0.0000
     9 O3B         54.6230    50.1420    17.6920 O.3          1 FAD479   0.0000
    10 C2B         53.9870    52.4790    18.0830 C.3          1 FAD479   0.0000
    11 O2B         53.2820    52.2160    16.8710 O.3          1 FAD479   0.0000
    12 C1B         53.0440    52.2820    19.2530 C.3          1 FAD479   0.0000
    13 N9A         52.3360    53.4980    19.6910 N.pl3        1 FAD479   0.0000
    14 C8A         52.8870    54.7610    19.9580 C.2          1 FAD479   0.0000
    15 N7A         51.9730    55.6060    20.4360 N.2          1 FAD479   0.0000
    16 C5A         50.8270    54.8840    20.5220 C.ar         1 FAD479   0.0000
    17 C6A         49.4890    55.2300    20.9620 C.ar         1 FAD479   0.0000
    18 N6A         49.1580    56.3930    21.4240 N.pl3        1 FAD479   0.0000
    19 N1A         48.5640    54.2350    20.8890 N.ar         1 FAD479   0.0000
    20 C2A         48.8660    53.0030    20.4150 C.ar         1 FAD479   0.0000
    21 N3A         50.0530    52.5980    20.0090 N.ar         1 FAD479   0.0000
    22 C4A         50.9940    53.5660    20.0590 C.ar         1 FAD479   0.0000
    23 N1          68.3480    48.6520    19.5240 N.2          1 FAD479   0.0000
    24 C2          69.1270    47.5510    19.7600 C.2          1 FAD479   0.0000
    25 O2          69.1980    47.0260    20.8420 O.2          1 FAD479   0.0000
    26 N3          69.9010    46.9750    18.7270 N.pl3        1 FAD479   0.0000
    27 C4          69.9790    47.4370    17.4340 C.2          1 FAD479   0.0000
    28 O4          70.6190    46.8500    16.5670 O.2          1 FAD479   0.0000
    29 C4X         69.1290    48.6260    17.1650 C.2          1 FAD479   0.0000
    30 N5          69.1080    49.1040    15.9520 N.2          1 FAD479   0.0000
    31 C5X         68.2630    50.1570    15.7320 C.ar         1 FAD479   0.0000
    32 C6          68.1760    50.6640    14.4260 C.ar         1 FAD479   0.0000
    33 C7          67.3380    51.6980    14.1140 C.ar         1 FAD479   0.0000
    34 C7M         67.3000    52.2580    12.7130 C.3          1 FAD479   0.0000
    35 C8          66.5320    52.2450    15.1490 C.ar         1 FAD479   0.0000
    36 C8M         65.6040    53.3900    14.9160 C.3          1 FAD479   0.0000
    37 C9          66.6200    51.7690    16.4380 C.ar         1 FAD479   0.0000
    38 C9A         67.4730    50.7280    16.7450 C.ar         1 FAD479   0.0000
    39 N10         67.5900    50.2580    18.0400 N.pl3        1 FAD479   0.0000
    40 C10         68.3620    49.1610    18.3000 C.2          1 FAD479   0.0000
    41 C1'         66.7700    50.8510    19.1140 C.3          1 FAD479   0.0000
    42 C2'         65.5550    49.9510    19.4580 C.3          1 FAD479   0.0000
    43 O2'         64.8440    49.6840    18.2530 O.3          1 FAD479   0.0000
    44 C3'         64.6130    50.7070    20.3690 C.3          1 FAD479   0.0000
    45 O3'         65.3200    51.0070    21.5550 O.3          1 FAD479   0.0000
    46 C4'         63.4390    49.8640    20.7640 C.3          1 FAD479   0.0000
    47 O4'         62.6320    49.4870    19.6130 O.3          1 FAD479   0.0000
    48 C5'         62.5880    50.7870    21.6980 C.3          1 FAD479   0.0000
    49 O5'         61.2670    49.8980    22.1190 O.3          1 FAD479   0.0000
    50 P           59.9580    50.5430    22.8030 P.3          1 FAD479   0.0000
    51 O1P         59.2010    49.3410    23.1980 O.co2        1 FAD479   0.0000
    52 O2P         60.3660    51.5960    23.6840 O.co2        1 FAD479  -1.0000
    53 O3P         59.3000    51.1460    21.5670 O.3          1 FAD479   0.0000
    54 H5B1        56.7173    52.6422    19.9902 H            1 FAD479   0.0000
    55 H5B2        56.2278    52.0991    21.4504 H            1 FAD479   0.0000
    56 H4B         54.9753    50.3455    20.1572 H            1 FAD479   0.0000
    57 H3B         55.8614    51.6198    17.9645 H            1 FAD479   0.0000
    58 H5          53.7304    49.8375    18.0245 H            1 FAD479   0.0000
    59 H2B         54.4269    53.3770    18.0876 H            1 FAD479   0.0000
    60 H7          52.4569    51.6883    17.0731 H            1 FAD479   0.0000
    61 H1B         52.4288    51.5042    19.1243 H            1 FAD479   0.0000
    62 H8A         53.8469    54.9979    19.8082 H            1 FAD479   0.0000
    63 H6A1        48.2161    56.5674    21.7111 H            1 FAD479   0.0000
    64 H6A2        49.8442    57.1171    21.4938 H            1 FAD479   0.0000
    65 H2A         48.1196    52.3391    20.3687 H            1 FAD479   0.0000
    66 H13         70.4374    46.1626    18.9558 H            1 FAD479   0.0000
    67 H14         68.7405    50.2592    13.7067 H            1 FAD479   0.0000
    68 H7M1        66.6346    53.0033    12.6699 H            1 FAD479   0.0000
    69 H7M2        68.2054    52.6048    12.4680 H            1 FAD479   0.0000
    70 H7M3        67.0348    51.5369    12.0729 H            1 FAD479   0.0000
    71 H8M1        65.1348    53.6178    15.7692 H            1 FAD479   0.0000
    72 H8M2        66.1254    54.1828    14.6004 H            1 FAD479   0.0000
    73 H8M3        64.9298    53.1368    14.2222 H            1 FAD479   0.0000
    74 H21         66.0613    52.1809    17.1578 H            1 FAD479   0.0000
    75 H1'1        66.4382    51.7455    18.8143 H            1 FAD479   0.0000
    76 H1'2        67.3350    50.9619    19.9316 H            1 FAD479   0.0000
    77 H2'         65.8556    49.0995    19.8877 H            1 FAD479   0.0000
    78 H25         65.2062    48.8538    17.8292 H            1 FAD479   0.0000
    79 H3'         64.3032    51.5488    19.9269 H            1 FAD479   0.0000
    80 H27         64.9695    51.8581    21.9458 H            1 FAD479   0.0000
    81 H4'         63.7434    49.0504    21.2594 H            1 FAD479   0.0000
    82 H29         63.2157    49.4219    18.8036 H            1 FAD479   0.0000
    83 H5'1        62.3103    51.6150    21.2109 H            1 FAD479   0.0000
    84 H5'2        63.1125    51.0388    22.5113 H            1 FAD479   0.0000
@<TRIPOS>BOND
     1    1    2      ar
     2    1    3      ar
     3    1    4       1
     4    1   53       1
     5    4    5       1
     6    5    6       1
     7    6    7       1
     8    6    8       1
     9    7   12       1
    10    8    9       1
    11    8   10       1
    12   10   11       1
    13   10   12       1
    14   12   13       1
    15   13   14       1
    16   13   22       1
    17   14   15       2
    18   15   16       1
    19   16   17      ar
    20   16   22      ar
    21   17   18       1
    22   17   19      ar
    23   19   20      ar
    24   20   21      ar
    25   21   22      ar
    26   23   24       1
    27   23   40       2
    28   24   25       2
    29   24   26       1
    30   26   27       1
    31   27   28       2
    32   27   29       1
    33   29   30       2
    34   29   40       1
    35   30   31       1
    36   31   32      ar
    37   31   38      ar
    38   32   33      ar
    39   33   34       1
    40   33   35      ar
    41   35   36       1
    42   35   37      ar
    43   37   38      ar
    44   38   39       1
    45   39   40       1
    46   39   41       1
    47   41   42       1
    48   42   43       1
    49   42   44       1
    50   44   45       1
    51   44   46       1
    52   46   47       1
    53   46   48       1
    54   48   49       1
    55   49   50       1
    56   50   51      ar
    57   50   52      ar
    58   50   53       1
    59   48   84       1
    60    5   54       1
    61    5   55       1
    62    6   56       1
    63    8   57       1
    64    9   58       1
    65   10   59       1
    66   11   60       1
    67   12   61       1
    68   14   62       1
    69   18   63       1
    70   18   64       1
    71   20   65       1
    72   26   66       1
    73   32   67       1
    74   34   68       1
    75   34   69       1
    76   34   70       1
    77   36   71       1
    78   36   72       1
    79   36   73       1
    80   37   74       1
    81   41   75       1
    82   41   76       1
    83   42   77       1
    84   43   78       1
    85   44   79       1
    86   45   80       1
    87   46   81       1
    88   47   82       1
    89   48   83       1
@<TRIPOS>SUBSTRUCTURE
     1 FAD479      1 GROUP             4 A     FAD     0 **** FAD A 479
