@<TRIPOS>MOLECULE
1ijh_FAD_1_ligand
   84    89     1     0     0
SMALL
NO_CHARGES


@<TRIPOS>ATOM
     1 PA          21.7390     0.7310    23.1850 P.3          1 FAD510   0.0000
     2 O1A         21.2170    -0.5420    22.6810 O.co2        1 FAD510   0.0000
     3 O2A         21.1680     1.9280    22.8070 O.co2        1 FAD510  -1.0000
     4 O5B         21.5370     0.5970    24.7000 O.3          1 FAD510   0.0000
     5 C5B         21.8650     1.6270    25.6920 C.3          1 FAD510   0.0000
     6 C4B         21.0150     1.2940    26.9800 C.3          1 FAD510   0.0000
     7 O4B         21.4790     2.2160    28.0550 O.3          1 FAD510   0.0000
     8 C3B         19.4600     1.5470    26.8670 C.3          1 FAD510   0.0000
     9 O3B         18.7030     0.5150    27.4130 O.3          1 FAD510   0.0000
    10 C2B         19.3200     2.9290    27.5650 C.3          1 FAD510   0.0000
    11 O2B         18.0290     3.0530    28.1590 O.3          1 FAD510   0.0000
    12 C1B         20.3160     2.7820    28.7140 C.3          1 FAD510   0.0000
    13 N9A         20.7430     4.0470    29.2640 N.pl3        1 FAD510   0.0000
    14 C8A         21.1420     5.1690    28.5770 C.2          1 FAD510   0.0000
    15 N7A         21.6400     6.1060    29.3640 N.2          1 FAD510   0.0000
    16 C5A         21.4980     5.5910    30.6350 C.ar         1 FAD510   0.0000
    17 C6A         21.7870     6.1650    31.9430 C.ar         1 FAD510   0.0000
    18 N6A         22.2940     7.3730    32.0810 N.pl3        1 FAD510   0.0000
    19 N1A         21.5510     5.3340    32.9910 N.ar         1 FAD510   0.0000
    20 C2A         20.9950     4.0980    32.8700 C.ar         1 FAD510   0.0000
    21 N3A         20.6950     3.4910    31.6960 N.ar         1 FAD510   0.0000
    22 C4A         21.0220     4.2590    30.6180 C.ar         1 FAD510   0.0000
    23 N1          21.1070    -2.2380    14.3040 N.2          1 FAD510   0.0000
    24 C2          21.3660    -3.3590    13.6620 C.2          1 FAD510   0.0000
    25 O2          22.4890    -3.8700    13.6010 O.2          1 FAD510   0.0000
    26 N3          20.3410    -4.1320    13.0300 N.pl3        1 FAD510   0.0000
    27 C4          19.0460    -3.6480    12.9360 C.2          1 FAD510   0.0000
    28 O4          18.1970    -4.3300    12.3870 O.2          1 FAD510   0.0000
    29 C4X         18.8180    -2.3150    13.4680 C.2          1 FAD510   0.0000
    30 N5          17.6020    -1.7270    13.2990 N.2          1 FAD510   0.0000
    31 C5X         17.3670    -0.5770    14.0130 C.ar         1 FAD510   0.0000
    32 C6          16.0370    -0.0860    14.0200 C.ar         1 FAD510   0.0000
    33 C7          15.6860     1.0180    14.7630 C.ar         1 FAD510   0.0000
    34 C7M         14.3050     1.6460    14.6640 C.3          1 FAD510   0.0000
    35 C8          16.5870     1.5240    15.7650 C.ar         1 FAD510   0.0000
    36 C8M         16.2110     2.6250    16.7420 C.3          1 FAD510   0.0000
    37 C9          17.8920     0.9930    15.8270 C.ar         1 FAD510   0.0000
    38 C9A         18.2630    -0.0770    15.0240 C.ar         1 FAD510   0.0000
    39 N10         19.5990    -0.5860    14.9720 N.pl3        1 FAD510   0.0000
    40 C10         19.8370    -1.7380    14.3220 C.2          1 FAD510   0.0000
    41 C1'         20.6980     0.0090    15.7660 C.3          1 FAD510   0.0000
    42 C2'         21.0030    -0.8100    17.0500 C.3          1 FAD510   0.0000
    43 O2'         19.7770    -1.0560    17.7730 O.3          1 FAD510   0.0000
    44 C3'         21.9200     0.0750    17.9100 C.3          1 FAD510   0.0000
    45 O3'         23.1190     0.3020    17.1180 O.3          1 FAD510   0.0000
    46 C4'         22.3470    -0.7490    19.1530 C.3          1 FAD510   0.0000
    47 O4'         21.2210    -1.0600    19.9930 O.3          1 FAD510   0.0000
    48 C5'         23.3290     0.1390    19.9320 C.3          1 FAD510   0.0000
    49 O5'         23.8200    -0.6480    21.1650 O.3          1 FAD510   0.0000
    50 P           24.4970     0.0670    22.3420 P.3          1 FAD510   0.0000
    51 O1P         24.9430    -0.9910    23.3150 O.co2        1 FAD510   0.0000
    52 O2P         25.3970     1.0670    21.8960 O.co2        1 FAD510  -1.0000
    53 O3P         23.4000     0.8520    23.0050 O.3          1 FAD510   0.0000
    54 H5B1        21.6234     2.5324    25.3430 H            1 FAD510   0.0000
    55 H5B2        22.8415     1.6020    25.9063 H            1 FAD510   0.0000
    56 H4B         21.1813     0.3472    27.2557 H            1 FAD510   0.0000
    57 H3B         19.2191     1.6476    25.9017 H            1 FAD510   0.0000
    58 H5          18.9258     0.4152    28.3827 H            1 FAD510   0.0000
    59 H2B         19.5407     3.6924    26.9579 H            1 FAD510   0.0000
    60 H7          17.9035     2.3295    28.8378 H            1 FAD510   0.0000
    61 H1B         19.9662     2.1729    29.4258 H            1 FAD510   0.0000
    62 H8A         21.0634     5.2658    27.5848 H            1 FAD510   0.0000
    63 H6A1        22.4800     7.7359    32.9941 H            1 FAD510   0.0000
    64 H6A2        22.4928     7.9271    31.2727 H            1 FAD510   0.0000
    65 H2A         20.7921     3.5989    33.7125 H            1 FAD510   0.0000
    66 H13         20.5616    -5.0312    12.6521 H            1 FAD510   0.0000
    67 H14         15.3400    -0.5511    13.4742 H            1 FAD510   0.0000
    68 H7M1        14.2514     2.4321    15.2797 H            1 FAD510   0.0000
    69 H7M2        14.1422     1.9469    13.7243 H            1 FAD510   0.0000
    70 H7M3        13.6130     0.9721    14.9228 H            1 FAD510   0.0000
    71 H8M1        16.9864     2.8156    17.3440 H            1 FAD510   0.0000
    72 H8M2        15.9712     3.4529    16.2350 H            1 FAD510   0.0000
    73 H8M3        15.4279     2.3312    17.2901 H            1 FAD510   0.0000
    74 H21         18.5582     1.3920    16.4570 H            1 FAD510   0.0000
    75 H1'1        20.4382     0.9378    16.0304 H            1 FAD510   0.0000
    76 H1'2        21.5226     0.0415    15.2011 H            1 FAD510   0.0000
    77 H2'         21.4568    -1.6711    16.8205 H            1 FAD510   0.0000
    78 H25         19.9740    -1.1198    18.7513 H            1 FAD510   0.0000
    79 H3'         21.4753     0.9331    18.1668 H            1 FAD510   0.0000
    80 H27         23.7868    -0.4169    17.3107 H            1 FAD510   0.0000
    81 H4'         22.8021    -1.5916    18.8651 H            1 FAD510   0.0000
    82 H29         21.3655    -0.6695    20.9022 H            1 FAD510   0.0000
    83 H5'1        22.8675     0.9758    20.2267 H            1 FAD510   0.0000
    84 H5'2        24.1069     0.3747    19.3495 H            1 FAD510   0.0000
@<TRIPOS>BOND
     1    1    2      ar
     2    1    3      ar
     3    1    4       1
     4    1   53       1
     5    4    5       1
     6    5    6       1
     7    6    7       1
     8    6    8       1
     9    7   12       1
    10    8    9       1
    11    8   10       1
    12   10   11       1
    13   10   12       1
    14   12   13       1
    15   13   14       1
    16   13   22       1
    17   14   15       2
    18   15   16       1
    19   16   17      ar
    20   16   22      ar
    21   17   18       1
    22   17   19      ar
    23   19   20      ar
    24   20   21      ar
    25   21   22      ar
    26   23   24       1
    27   23   40       2
    28   24   25       2
    29   24   26       1
    30   26   27       1
    31   27   28       2
    32   27   29       1
    33   29   30       2
    34   29   40       1
    35   30   31       1
    36   31   32      ar
    37   31   38      ar
    38   32   33      ar
    39   33   34       1
    40   33   35      ar
    41   35   36       1
    42   35   37      ar
    43   37   38      ar
    44   38   39       1
    45   39   40       1
    46   39   41       1
    47   41   42       1
    48   42   43       1
    49   42   44       1
    50   44   45       1
    51   44   46       1
    52   46   47       1
    53   46   48       1
    54   48   49       1
    55   49   50       1
    56   50   51      ar
    57   50   52      ar
    58   50   53       1
    59   48   84       1
    60    5   54       1
    61    5   55       1
    62    6   56       1
    63    8   57       1
    64    9   58       1
    65   10   59       1
    66   11   60       1
    67   12   61       1
    68   14   62       1
    69   18   63       1
    70   18   64       1
    71   20   65       1
    72   26   66       1
    73   32   67       1
    74   34   68       1
    75   34   69       1
    76   34   70       1
    77   36   71       1
    78   36   72       1
    79   36   73       1
    80   37   74       1
    81   41   75       1
    82   41   76       1
    83   42   77       1
    84   43   78       1
    85   44   79       1
    86   45   80       1
    87   46   81       1
    88   47   82       1
    89   48   83       1
@<TRIPOS>SUBSTRUCTURE
     1 FAD510      1 GROUP             4 A     FAD     0 **** FAD A 510
