@<TRIPOS>MOLECULE
5bxy_SAH_1_ligand
   46    48     1     0     0
SMALL
NO_CHARGES


@<TRIPOS>ATOM
     1 N           14.4380    19.7000    57.9840 N.4          1 SAH201   1.0000
     2 CA          14.9920    20.8980    57.2760 C.3          1 SAH201   0.0000
     3 CB          16.5330    20.9040    57.1550 C.3          1 SAH201   0.0000
     4 CG          17.1380    19.6920    56.4310 C.3          1 SAH201   0.0000
     5 SD          18.8970    19.8600    56.2160 S.3          1 SAH201   0.0000
     6 C           14.3840    20.9720    55.9030 C.2          1 SAH201   0.0000
     7 O           14.4440    22.0070    55.2270 O.co2        1 SAH201   0.0000
     8 OXT         13.8490    19.9720    55.4220 O.co2        1 SAH201  -1.0000
     9 C5'         19.4720    18.7610    57.4990 C.3          1 SAH201   0.0000
    10 C4'         19.6690    19.4030    58.8870 C.3          1 SAH201   0.0000
    11 O4'         19.9670    18.4080    59.8900 O.3          1 SAH201   0.0000
    12 C3'         20.8440    20.3790    58.9500 C.3          1 SAH201   0.0000
    13 O3'         20.3870    21.6770    59.3610 O.3          1 SAH201   0.0000
    14 C2'         21.8430    19.7520    59.9250 C.3          1 SAH201   0.0000
    15 O2'         22.6430    20.6770    60.6820 O.3          1 SAH201   0.0000
    16 C1'         20.9440    18.9310    60.8150 C.3          1 SAH201   0.0000
    17 N9          21.5330    17.7750    61.5260 N.pl3        1 SAH201   0.0000
    18 C8          22.4390    16.8950    61.0660 C.2          1 SAH201   0.0000
    19 N7          22.7230    15.9450    61.9310 N.2          1 SAH201   0.0000
    20 C5          21.9290    16.2260    63.0250 C.ar         1 SAH201   0.0000
    21 C6          21.7540    15.5830    64.2600 C.ar         1 SAH201   0.0000
    22 N6          22.4440    14.4650    64.5930 N.pl3        1 SAH201   0.0000
    23 N1          20.8680    16.1370    65.1500 N.ar         1 SAH201   0.0000
    24 C2          20.2000    17.2550    64.7990 C.ar         1 SAH201   0.0000
    25 N3          20.3060    17.9380    63.6490 N.ar         1 SAH201   0.0000
    26 C4          21.1840    17.3560    62.7770 C.ar         1 SAH201   0.0000
    27 H1          13.5895    19.9510    58.4498 H            1 SAH201   0.0000
    28 H2          14.2519    18.9765    57.3193 H            1 SAH201   0.0000
    29 HA          14.7163    21.7146    57.7831 H            1 SAH201   0.0000
    30 HB1         16.9155    20.9351    58.0784 H            1 SAH201   0.0000
    31 HB2         16.8007    21.7279    56.6554 H            1 SAH201   0.0000
    32 HG1         16.7090    19.6048    55.5319 H            1 SAH201   0.0000
    33 HG2         16.9549    18.8691    56.9689 H            1 SAH201   0.0000
    34 H5'1        20.3502    18.3813    57.2082 H            1 SAH201   0.0000
    35 H5'2        18.8044    18.0225    57.5935 H            1 SAH201   0.0000
    36 H4'         18.8314    19.8846    59.1449 H            1 SAH201   0.0000
    37 H3'         21.2646    20.4482    58.0454 H            1 SAH201   0.0000
    38 H12         19.9665    21.6112    60.2659 H            1 SAH201   0.0000
    39 H2'         22.4484    19.1374    59.4192 H            1 SAH201   0.0000
    40 H14         22.0462    21.2621    61.2311 H            1 SAH201   0.0000
    41 H1'         20.4904    19.5310    61.4740 H            1 SAH201   0.0000
    42 H16         22.8549    16.9561    60.1586 H            1 SAH201   0.0000
    43 H17         22.2951    14.0317    65.4818 H            1 SAH201   0.0000
    44 H18         23.1020    14.0734    63.9498 H            1 SAH201   0.0000
    45 H19         19.5532    17.6152    65.4713 H            1 SAH201   0.0000
    46 H20         15.1027    19.3727    58.6556 H            1 SAH201   0.0000
@<TRIPOS>BOND
     1    1    2       1
     2    2    3       1
     3    2    6       1
     4    3    4       1
     5    4    5       1
     6    5    9       1
     7    6    7      ar
     8    6    8      ar
     9    9   10       1
    10   10   11       1
    11   10   12       1
    12   11   16       1
    13   12   13       1
    14   12   14       1
    15   14   15       1
    16   14   16       1
    17   16   17       1
    18   17   18       1
    19   17   26       1
    20   18   19       2
    21   19   20       1
    22   20   21      ar
    23   20   26      ar
    24   21   22       1
    25   21   23      ar
    26   23   24      ar
    27   24   25      ar
    28   25   26      ar
    29    1   27       1
    30    1   28       1
    31    2   29       1
    32    3   30       1
    33    3   31       1
    34    4   32       1
    35    4   33       1
    36    1   46       1
    37    9   34       1
    38    9   35       1
    39   10   36       1
    40   12   37       1
    41   13   38       1
    42   14   39       1
    43   15   40       1
    44   16   41       1
    45   18   42       1
    46   22   43       1
    47   22   44       1
    48   24   45       1
@<TRIPOS>SUBSTRUCTURE
     1 SAH201      1 GROUP             4 A     SAH     0 **** SAH A 201
