@<TRIPOS>MOLECULE
1i7g_AZ2_1_ligand
   51    52     1     0     0
SMALL
NO_CHARGES


@<TRIPOS>ATOM
     1 C1          38.5740    31.9690    36.6470 C.ar         1 AZ2469   0.0000
     2 C2          39.5130    30.7880    36.6050 C.3          1 AZ2469   0.0000
     3 C5          40.3300    30.6260    37.9090 C.3          1 AZ2469   0.0000
     4 O7          41.2860    31.7030    37.9490 O.3          1 AZ2469   0.0000
     5 C8          41.6910    32.1050    39.2530 C.3          1 AZ2469   0.0000
     6 C11         42.2940    33.4880    39.1140 C.3          1 AZ2469   0.0000
     7 C15         40.9620    29.2420    37.9120 C.2          1 AZ2469   0.0000
     8 O16         40.0910    28.2780    38.2830 O.co2        1 AZ2469   0.0000
     9 O18         42.1140    28.9560    37.6270 O.co2        1 AZ2469  -1.0000
    10 C19         39.0760    33.2960    36.4380 C.ar         1 AZ2469   0.0000
    11 C21         38.2100    34.4030    36.4970 C.ar         1 AZ2469   0.0000
    12 C23         36.8300    34.2240    36.7650 C.ar         1 AZ2469   0.0000
    13 C24         36.3250    32.8990    36.9670 C.ar         1 AZ2469   0.0000
    14 C26         37.1850    31.7900    36.9090 C.ar         1 AZ2469   0.0000
    15 O28         36.1240    35.3940    36.7930 O.3          1 AZ2469   0.0000
    16 C29         34.8720    35.4130    37.4750 C.3          1 AZ2469   0.0000
    17 C32         34.5440    36.8830    37.7090 C.3          1 AZ2469   0.0000
    18 C35         34.8830    37.3340    39.0980 C.ar         1 AZ2469   0.0000
    19 C36         35.7260    38.4610    39.3000 C.ar         1 AZ2469   0.0000
    20 C38         36.0290    38.8900    40.6080 C.ar         1 AZ2469   0.0000
    21 C40         35.4930    38.1950    41.7340 C.ar         1 AZ2469   0.0000
    22 C41         34.6630    37.0770    41.5380 C.ar         1 AZ2469   0.0000
    23 C43         34.3560    36.6440    40.2300 C.ar         1 AZ2469   0.0000
    24 O45         35.8350    38.7070    42.9490 O.3          1 AZ2469   0.0000
    25 S46         34.8030    39.7180    43.7040 S.o2         1 AZ2469   0.0000
    26 C47         35.7830    39.9980    45.1580 C.3          1 AZ2469   0.0000
    27 O51         34.7270    40.9530    42.9560 O.2          1 AZ2469   0.0000
    28 O52         33.6190    38.9790    44.0960 O.2          1 AZ2469   0.0000
    29 H1          40.1485    30.9119    35.8429 H            1 AZ2469   0.0000
    30 H2          38.9756    29.9574    36.4592 H            1 AZ2469   0.0000
    31 H3          39.7142    30.7060    38.6928 H            1 AZ2469   0.0000
    32 H4          42.3710    31.4672    39.6147 H            1 AZ2469   0.0000
    33 H5          40.9013    32.1333    39.8658 H            1 AZ2469   0.0000
    34 H6          42.5943    33.8124    40.0110 H            1 AZ2469   0.0000
    35 H7          43.0777    33.4492    38.4941 H            1 AZ2469   0.0000
    36 H8          41.6080    34.1152    38.7452 H            1 AZ2469   0.0000
    37 H9          40.0481    33.4353    36.2491 H            1 AZ2469   0.0000
    38 H10         38.5711    35.3237    36.3486 H            1 AZ2469   0.0000
    39 H11         35.3516    32.7623    37.1509 H            1 AZ2469   0.0000
    40 H12         36.8205    30.8699    37.0524 H            1 AZ2469   0.0000
    41 H13         34.9442    34.9298    38.3475 H            1 AZ2469   0.0000
    42 H14         34.1641    34.9840    36.9140 H            1 AZ2469   0.0000
    43 H15         33.5653    37.0211    37.5571 H            1 AZ2469   0.0000
    44 H16         35.0637    37.4351    37.0570 H            1 AZ2469   0.0000
    45 H17         36.1041    38.9495    38.5137 H            1 AZ2469   0.0000
    46 H18         36.6212    39.6836    40.7477 H            1 AZ2469   0.0000
    47 H19         34.2897    36.5880    42.3263 H            1 AZ2469   0.0000
    48 H20         33.7652    35.8484    40.0960 H            1 AZ2469   0.0000
    49 H21         35.2982    40.6210    45.7719 H            1 AZ2469   0.0000
    50 H22         35.9434    39.1281    45.6245 H            1 AZ2469   0.0000
    51 H23         36.6593    40.4026    44.8965 H            1 AZ2469   0.0000
@<TRIPOS>BOND
     1    1    2       1
     2    1   10      ar
     3    1   14      ar
     4    2    3       1
     5    3    4       1
     6    3    7       1
     7    4    5       1
     8    5    6       1
     9    7    8      ar
    10    7    9      ar
    11   10   11      ar
    12   11   12      ar
    13   12   13      ar
    14   12   15       1
    15   13   14      ar
    16   15   16       1
    17   16   17       1
    18   17   18       1
    19   18   19      ar
    20   18   23      ar
    21   19   20      ar
    22   20   21      ar
    23   21   22      ar
    24   21   24       1
    25   22   23      ar
    26   24   25       1
    27   25   26       1
    28   25   27       2
    29   25   28       2
    30    2   29       1
    31    2   30       1
    32    3   31       1
    33    5   32       1
    34    5   33       1
    35    6   34       1
    36    6   35       1
    37    6   36       1
    38   26   51       1
    39   10   37       1
    40   11   38       1
    41   13   39       1
    42   14   40       1
    43   16   41       1
    44   16   42       1
    45   17   43       1
    46   17   44       1
    47   19   45       1
    48   20   46       1
    49   22   47       1
    50   23   48       1
    51   26   49       1
    52   26   50       1
@<TRIPOS>SUBSTRUCTURE
     1 AZ2469      1 GROUP             4 A     AZ2     0 **** AZ2 A 469
