@<TRIPOS>MOLECULE
1upc_TPP_1_ligand
   43    44     1     0     0
SMALL
NO_CHARGES


@<TRIPOS>ATOM
     1 N1'         34.4290    52.1120    21.9860 N.ar         1 TPP600   1.0000
     2 C2'         34.7120    51.0640    22.8540 C.ar         1 TPP600   0.0000
     3 CM2         34.4840    51.1660    24.3310 C.3          1 TPP600   0.0000
     4 N3'         35.1980    49.8800    22.3500 N.ar         1 TPP600   0.0000
     5 C4'         35.4360    49.7510    20.9860 C.ar         1 TPP600   0.0000
     6 N4'         35.9020    48.5760    20.5760 N.pl3        1 TPP600   0.0000
     7 C5'         35.1340    50.7830    20.0770 C.ar         1 TPP600   0.0000
     8 C6'         34.6300    51.9730    20.6180 C.ar         1 TPP600   0.0000
     9 C7'         35.3770    50.6110    18.5600 C.3          1 TPP600   0.0000
    10 N3          36.7210    50.1990    18.6270 N.2          1 TPP600   1.0000
    11 C2          37.0510    48.8830    18.8370 C.2          1 TPP600   0.0000
    12 S1          38.6130    48.6860    19.0450 S.3          1 TPP600   0.0000
    13 C5          38.9090    50.2750    18.8370 C.2          1 TPP600   0.0000
    14 C4          37.7770    51.0250    18.6320 C.2          1 TPP600   0.0000
    15 CM4         37.7310    52.5020    18.4440 C.3          1 TPP600   0.0000
    16 C6          40.3510    50.7200    18.8880 C.3          1 TPP600   0.0000
    17 C7          41.0040    50.5340    17.5090 C.3          1 TPP600   0.0000
    18 O7          42.2450    51.2120    17.3920 O.3          1 TPP600   0.0000
    19 PA          43.5750    50.5810    18.0270 P.3          1 TPP600   0.0000
    20 O1A         44.7770    51.4340    17.7530 O.co2        1 TPP600   0.0000
    21 O2A         43.4300    50.2450    19.5100 O.co2        1 TPP600  -1.0000
    22 O3A         43.7700    49.1860    17.2540 O.3          1 TPP600   0.0000
    23 PB          43.9820    49.1510    15.6650 P.3          1 TPP600   0.0000
    24 O1B         44.8910    48.0460    15.3670 O.co2        1 TPP600   0.0000
    25 O2B         42.7120    48.7410    15.0340 O.co2        1 TPP600  -1.0000
    26 O3B         44.5570    50.4880    15.2040 O.co2        1 TPP600  -1.0000
    27 HM21        34.7507    50.3078    24.7695 H            1 TPP600   0.0000
    28 HM22        35.0332    51.9147    24.7021 H            1 TPP600   0.0000
    29 HM23        33.5158    51.3436    24.5073 H            1 TPP600   0.0000
    30 H4'1        36.0920    48.4244    19.6060 H            1 TPP600   0.0000
    31 H4'2        36.0626    47.8434    21.2375 H            1 TPP600   0.0000
    32 H6'         34.4111    52.7355    20.0092 H            1 TPP600   0.0000
    33 H7'1        35.2677    51.4692    18.0585 H            1 TPP600   0.0000
    34 H7'2        34.7855    49.9122    18.1578 H            1 TPP600   0.0000
    35 H9          36.3860    48.1364    18.8567 H            1 TPP600   0.0000
    36 HM41        38.6583    52.8732    18.4923 H            1 TPP600   0.0000
    37 HM42        37.3340    52.7121    17.5506 H            1 TPP600   0.0000
    38 HM43        37.1698    52.9122    19.1629 H            1 TPP600   0.0000
    39 H13         40.8433    50.1726    19.5647 H            1 TPP600   0.0000
    40 H14         40.3914    51.6851    19.1467 H            1 TPP600   0.0000
    41 H15         40.3808    50.8856    16.8104 H            1 TPP600   0.0000
    42 H16         41.1579    49.5576    17.3575 H            1 TPP600   0.0000
    43 H1'         34.0772    52.9746    22.3495 H            1 TPP600   0.0000
@<TRIPOS>BOND
     1    1    2      ar
     2    1    8      ar
     3    2    3       1
     4    2    4      ar
     5    4    5      ar
     6    5    6       1
     7    5    7      ar
     8    7    8      ar
     9    7    9       1
    10    9   10       1
    11   10   11       2
    12   10   14       1
    13   11   12       1
    14   12   13       1
    15   13   14       2
    16   13   16       1
    17   14   15       1
    18   16   17       1
    19   17   18       1
    20   18   19       1
    21   19   20      ar
    22   19   21      ar
    23   19   22       1
    24   22   23       1
    25   23   24      ar
    26   23   25      ar
    27   23   26      ar
    28    3   27       1
    29    3   28       1
    30    3   29       1
    31    6   30       1
    32    6   31       1
    33    8   32       1
    34    9   33       1
    35    9   34       1
    36   11   35       1
    37   15   36       1
    38   15   37       1
    39   15   38       1
    40   16   39       1
    41   16   40       1
    42   17   41       1
    43   17   42       1
    44    1   43       1
@<TRIPOS>SUBSTRUCTURE
     1 TPP600      1 GROUP             4 A     TPP     0 **** TPP A 600
