@<TRIPOS>MOLECULE
3ehj_ACP_1_ligand
   45    47     1     0     0
SMALL
NO_CHARGES


@<TRIPOS>ATOM
     1 PG          33.6850     2.2000    56.0570 P.3          1 ACP1303   0.0000
     2 O1G         33.8630     3.1890    54.9060 O.co2        1 ACP1303   0.0000
     3 O2G         33.2470     0.7650    55.6900 O.co2        1 ACP1303  -1.0000
     4 O3G         32.9430     2.7200    57.2940 O.co2        1 ACP1303  -1.0000
     5 PB          35.6720     3.8950    56.9480 P.3          1 ACP1303   0.0000
     6 O1B         36.9450     4.2140    57.6990 O.co2        1 ACP1303   0.0000
     7 O2B         34.4050     4.6050    57.4760 O.co2        1 ACP1303  -1.0000
     8 C3B         35.3560     2.1540    56.6770 C.3          1 ACP1303   0.0000
     9 PA          35.5770     5.7470    54.9880 P.3          1 ACP1303   0.0000
    10 O1A         34.1160     5.7760    55.4150 O.co2        1 ACP1303   0.0000
    11 O2A         36.2930     5.8690    53.6680 O.co2        1 ACP1303  -1.0000
    12 O3A         36.0560     4.3020    55.4550 O.3          1 ACP1303   0.0000
    13 O5'         36.3920     6.7970    55.8650 O.3          1 ACP1303   0.0000
    14 C5'         37.8210     6.6330    55.9010 C.3          1 ACP1303   0.0000
    15 C4'         38.3970     7.1370    57.2190 C.3          1 ACP1303   0.0000
    16 O4'         38.3180     8.5540    57.1110 O.3          1 ACP1303   0.0000
    17 C3'         37.6170     6.7610    58.4820 C.3          1 ACP1303   0.0000
    18 O3'         38.0230     5.5560    59.1470 O.3          1 ACP1303   0.0000
    19 C2'         37.9100     7.9500    59.3350 C.3          1 ACP1303   0.0000
    20 O2'         39.2670     7.8690    59.7550 O.3          1 ACP1303   0.0000
    21 C1'         37.9500     9.1180    58.3770 C.3          1 ACP1303   0.0000
    22 N9          36.7260     9.9790    58.3360 N.pl3        1 ACP1303   0.0000
    23 C8          35.8230     9.9850    57.3560 C.2          1 ACP1303   0.0000
    24 N7          34.8640    10.8870    57.6320 N.2          1 ACP1303   0.0000
    25 C5          35.1690    11.5110    58.7850 C.ar         1 ACP1303   0.0000
    26 C6          34.5470    12.5320    59.5320 C.ar         1 ACP1303   0.0000
    27 N6          33.4060    13.1210    59.1380 N.pl3        1 ACP1303   0.0000
    28 N1          35.1160    12.9020    60.6940 N.ar         1 ACP1303   0.0000
    29 C2          36.2520    12.3100    61.1270 C.ar         1 ACP1303   0.0000
    30 N3          36.8760    11.3450    60.4270 N.ar         1 ACP1303   0.0000
    31 C4          36.3550    10.9170    59.2420 C.ar         1 ACP1303   0.0000
    32 H3B1        35.9864     1.7673    56.0039 H            1 ACP1303   0.0000
    33 H3B2        35.4170     1.6333    57.5286 H            1 ACP1303   0.0000
    34 H5'1        38.2283     7.1494    55.1477 H            1 ACP1303   0.0000
    35 H5'2        38.0413     5.6631    55.7977 H            1 ACP1303   0.0000
    36 H4'         39.3515     6.8523    57.3076 H            1 ACP1303   0.0000
    37 H3'         36.6388     6.7227    58.2778 H            1 ACP1303   0.0000
    38 H7          37.5082     4.7821    58.7782 H            1 ACP1303   0.0000
    39 H2'         37.2639     8.0717    60.0885 H            1 ACP1303   0.0000
    40 H9          39.6840     7.0422    59.3774 H            1 ACP1303   0.0000
    41 H1'         38.7075     9.7039    58.6650 H            1 ACP1303   0.0000
    42 H11         35.8536     9.4074    56.5403 H            1 ACP1303   0.0000
    43 H12         32.9966    13.8420    59.6970 H            1 ACP1303   0.0000
    44 H13         32.9659    12.8385    58.2856 H            1 ACP1303   0.0000
    45 H14         36.6431    12.6003    62.0004 H            1 ACP1303   0.0000
@<TRIPOS>BOND
     1    1    2      ar
     2    1    3      ar
     3    1    4      ar
     4    1    8       1
     5    5    6      ar
     6    5    7      ar
     7    5    8       1
     8    5   12       1
     9    9   10      ar
    10    9   11      ar
    11    9   12       1
    12    9   13       1
    13   13   14       1
    14   14   15       1
    15   15   16       1
    16   15   17       1
    17   16   21       1
    18   17   18       1
    19   17   19       1
    20   19   20       1
    21   19   21       1
    22   21   22       1
    23   22   23       1
    24   22   31       1
    25   23   24       2
    26   24   25       1
    27   25   26      ar
    28   25   31      ar
    29   26   27       1
    30   26   28      ar
    31   28   29      ar
    32   29   30      ar
    33   30   31      ar
    34   29   45       1
    35   27   44       1
    36   27   43       1
    37    8   32       1
    38    8   33       1
    39   23   42       1
    40   14   34       1
    41   14   35       1
    42   15   36       1
    43   17   37       1
    44   18   38       1
    45   19   39       1
    46   20   40       1
    47   21   41       1
@<TRIPOS>SUBSTRUCTURE
     1 ACP1303     1 GROUP             4 A     ACP     0 **** ACP A1303
