@<TRIPOS>MOLECULE
4hdq_GNP_1_ligand
   45    47     1     0     0
SMALL
NO_CHARGES


@<TRIPOS>ATOM
     1 PG           0.4810     4.8940    28.8670 P.3          1 GNP201   0.0000
     2 O1G          1.2060     5.8840    27.8630 O.co2        1 GNP201   0.0000
     3 O2G         -0.6800     5.5420    29.6030 O.co2        1 GNP201  -1.0000
     4 O3G          1.6720     4.6750    29.9510 O.co2        1 GNP201  -1.0000
     5 N3B         -0.0490     3.3710    28.2430 N.3          1 GNP201   0.0000
     6 PB          -1.1000     3.1940    26.8600 P.3          1 GNP201   0.0000
     7 O1B         -0.4200     4.2300    25.8630 O.co2        1 GNP201   0.0000
     8 O2B         -2.5340     3.4100    27.2020 O.co2        1 GNP201  -1.0000
     9 O3A         -0.8890     1.7090    26.3760 O.3          1 GNP201   0.0000
    10 PA           0.1240     1.2800    25.1670 P.3          1 GNP201   0.0000
    11 O1A         -0.5680     1.6850    23.8580 O.co2        1 GNP201   0.0000
    12 O2A          1.5300     1.6830    25.5030 O.co2        1 GNP201  -1.0000
    13 O5'         -0.1200    -0.2690    25.1620 O.3          1 GNP201   0.0000
    14 C5'          0.0600    -0.9860    26.4070 C.3          1 GNP201   0.0000
    15 C4'          0.5180    -2.4330    26.1170 C.3          1 GNP201   0.0000
    16 O4'         -0.6110    -3.1460    25.6120 O.3          1 GNP201   0.0000
    17 C3'          1.5510    -2.6000    24.9980 C.3          1 GNP201   0.0000
    18 O3'          2.3750    -3.7700    25.1480 O.3          1 GNP201   0.0000
    19 C2'          0.7220    -2.8440    23.7580 C.3          1 GNP201   0.0000
    20 O2'          1.3840    -3.4990    22.6670 O.3          1 GNP201   0.0000
    21 C1'         -0.4330    -3.6590    24.3180 C.3          1 GNP201   0.0000
    22 N9          -1.6490    -3.3400    23.5370 N.pl3        1 GNP201   0.0000
    23 C8          -2.1450    -2.1080    23.2080 C.2          1 GNP201   0.0000
    24 N7          -3.2810    -2.1700    22.5060 N.2          1 GNP201   0.0000
    25 C5          -3.5020    -3.4700    22.3320 C.2          1 GNP201   0.0000
    26 C6          -4.4850    -4.3030    21.6410 C.2          1 GNP201   0.0000
    27 O6          -5.4720    -3.8390    21.0650 O.2          1 GNP201   0.0000
    28 N1          -4.3150    -5.6400    21.7200 N.pl3        1 GNP201   0.0000
    29 C2          -3.2970    -6.2130    22.3900 C.2          1 GNP201   0.0000
    30 N2          -3.2050    -7.5610    22.4800 N.pl3        1 GNP201   0.0000
    31 N3          -2.3520    -5.5260    23.0220 N.2          1 GNP201   0.0000
    32 C4          -2.4260    -4.2120    23.0180 C.2          1 GNP201   0.0000
    33 H3B          0.7841     2.8663    28.0165 H            1 GNP201   0.0000
    34 H5'1        -0.8060    -1.0059    26.9067 H            1 GNP201   0.0000
    35 H5'2         0.7531    -0.5229    26.9594 H            1 GNP201   0.0000
    36 H4'          0.8486    -2.8635    26.9568 H            1 GNP201   0.0000
    37 H3'          2.1104    -1.7769    24.8998 H            1 GNP201   0.0000
    38 H6           2.2563    -4.3654    24.3534 H            1 GNP201   0.0000
    39 H2'          0.3662    -1.9671    23.4348 H            1 GNP201   0.0000
    40 H8           1.8029    -2.8136    22.0714 H            1 GNP201   0.0000
    41 H1'         -0.2350    -4.6392    24.3245 H            1 GNP201   0.0000
    42 H10         -1.7029    -1.2490    23.4663 H            1 GNP201   0.0000
    43 H11         -4.9759    -6.2325    21.2595 H            1 GNP201   0.0000
    44 H12         -2.4457    -7.9781    22.9795 H            1 GNP201   0.0000
    45 H13         -3.8964    -8.1394    22.0470 H            1 GNP201   0.0000
@<TRIPOS>BOND
     1    1    2      ar
     2    1    3      ar
     3    1    4      ar
     4    1    5       1
     5    5    6       1
     6    6    7      ar
     7    6    8      ar
     8    6    9       1
     9    9   10       1
    10   10   11      ar
    11   10   12      ar
    12   10   13       1
    13   13   14       1
    14   14   15       1
    15   15   16       1
    16   15   17       1
    17   16   21       1
    18   17   18       1
    19   17   19       1
    20   19   20       1
    21   19   21       1
    22   21   22       1
    23   22   23       1
    24   22   32       1
    25   23   24       2
    26   24   25       1
    27   25   26       1
    28   25   32       2
    29   26   27       2
    30   26   28       1
    31   28   29       1
    32   29   30       1
    33   29   31       2
    34   31   32       1
    35   30   45       1
    36   30   44       1
    37    5   33       1
    38   28   43       1
    39   23   42       1
    40   14   34       1
    41   14   35       1
    42   15   36       1
    43   17   37       1
    44   18   38       1
    45   19   39       1
    46   20   40       1
    47   21   41       1
@<TRIPOS>SUBSTRUCTURE
     1 GNP201      1 GROUP             4 B     GNP     0 **** GNP B 201
