@<TRIPOS>MOLECULE
3i0p_NAD_1_ligand
   70    74     1     0     0
SMALL
NO_CHARGES


@<TRIPOS>ATOM
     1 PA          25.6570    26.1990    28.6970 P.3          1 NAD401   0.0000
     2 O1A         26.6130    25.3640    27.8800 O.co2        1 NAD401   0.0000
     3 O2A         24.3720    25.5800    29.1440 O.co2        1 NAD401  -1.0000
     4 O5B         26.4860    26.7040    29.9790 O.3          1 NAD401   0.0000
     5 C5B         27.7760    27.3170    29.8050 C.3          1 NAD401   0.0000
     6 C4B         28.2570    28.0410    31.0700 C.3          1 NAD401   0.0000
     7 O4B         27.9200    27.3190    32.2620 O.3          1 NAD401   0.0000
     8 C3B         29.7640    28.1890    31.1140 C.3          1 NAD401   0.0000
     9 O3B         30.0800    29.3940    31.8310 O.3          1 NAD401   0.0000
    10 C2B         30.2230    26.9790    31.8980 C.3          1 NAD401   0.0000
    11 O2B         31.4750    27.2130    32.5430 O.3          1 NAD401   0.0000
    12 C1B         29.1060    26.8370    32.9120 C.3          1 NAD401   0.0000
    13 N9A         28.8830    25.4490    33.4120 N.pl3        1 NAD401   0.0000
    14 C8A         28.5060    24.3800    32.6950 C.2          1 NAD401   0.0000
    15 N7A         28.3850    23.3270    33.5320 N.2          1 NAD401   0.0000
    16 C5A         28.6800    23.7480    34.7840 C.ar         1 NAD401   0.0000
    17 C6A         28.7280    23.1360    36.0410 C.ar         1 NAD401   0.0000
    18 N6A         28.4430    21.8200    36.1920 N.pl3        1 NAD401   0.0000
    19 N1A         29.0780    23.8640    37.1290 N.ar         1 NAD401   0.0000
    20 C2A         29.3730    25.1660    37.0150 C.ar         1 NAD401   0.0000
    21 N3A         29.3290    25.7780    35.8240 N.ar         1 NAD401   0.0000
    22 C4A         28.9890    25.0910    34.6970 C.ar         1 NAD401   0.0000
    23 O3          25.3530    27.6180    27.9620 O.3          1 NAD401   0.0000
    24 PN          24.5020    27.8980    26.6020 P.3          1 NAD401   0.0000
    25 O1N         23.2850    28.7000    26.9960 O.co2        1 NAD401   0.0000
    26 O2N         24.3560    26.6290    25.7990 O.co2        1 NAD401  -1.0000
    27 O5D         25.4590    28.8660    25.7570 O.3          1 NAD401   0.0000
    28 C5D         26.5480    28.3420    24.9910 C.3          1 NAD401   0.0000
    29 C4D         27.1950    29.4480    24.1610 C.3          1 NAD401   0.0000
    30 O4D         26.2650    29.9670    23.2060 O.3          1 NAD401   0.0000
    31 C3D         27.6360    30.6290    25.0160 C.3          1 NAD401   0.0000
    32 O3D         29.0300    30.8570    24.7660 O.3          1 NAD401   0.0000
    33 C2D         26.7530    31.7990    24.5820 C.3          1 NAD401   0.0000
    34 O2D         27.3920    33.0880    24.5600 O.3          1 NAD401   0.0000
    35 C1D         26.3790    31.3940    23.1740 C.3          1 NAD401   0.0000
    36 N1N         25.1550    32.0510    22.7210 N.ar         1 NAD401   1.0000
    37 C2N         25.2690    33.1000    21.8760 C.ar         1 NAD401   0.0000
    38 C3N         24.1260    33.7590    21.4150 C.ar         1 NAD401   0.0000
    39 C7N         24.2320    34.9290    20.4770 C.2          1 NAD401   0.0000
    40 O7N         23.2050    35.4750    20.0940 O.2          1 NAD401   0.0000
    41 N7N         25.4340    35.3440    20.0840 N.am         1 NAD401   0.0000
    42 C4N         22.8690    33.3180    21.8380 C.ar         1 NAD401   0.0000
    43 C5N         22.7810    32.2360    22.7200 C.ar         1 NAD401   0.0000
    44 C6N         23.9520    31.6120    23.1480 C.ar         1 NAD401   0.0000
    45 H5B1        27.7182    27.9797    29.0584 H            1 NAD401   0.0000
    46 H5B2        28.4396    26.6069    29.5698 H            1 NAD401   0.0000
    47 H4B         27.8378    28.9481    31.1073 H            1 NAD401   0.0000
    48 H3B         30.1566    28.1982    30.1943 H            1 NAD401   0.0000
    49 H5          31.0727    29.5081    31.8700 H            1 NAD401   0.0000
    50 H2B         30.2724    26.1723    31.3091 H            1 NAD401   0.0000
    51 H7          32.2200    26.9457    31.9318 H            1 NAD401   0.0000
    52 H1B         29.3058    27.4295    33.6924 H            1 NAD401   0.0000
    53 H8A         28.3424    24.3652    31.7086 H            1 NAD401   0.0000
    54 H6A1        28.4828    21.4006    37.0989 H            1 NAD401   0.0000
    55 H6A2        28.1928    21.2681    35.3965 H            1 NAD401   0.0000
    56 H2A         29.6292    25.6874    37.8290 H            1 NAD401   0.0000
    57 H5D1        26.2073    27.6276    24.3797 H            1 NAD401   0.0000
    58 H5D2        27.2298    27.9532    25.6107 H            1 NAD401   0.0000
    59 H4D         27.9885    29.0763    23.6791 H            1 NAD401   0.0000
    60 H3D         27.4885    30.4271    25.9842 H            1 NAD401   0.0000
    61 H17         29.4577    31.2381    25.5857 H            1 NAD401   0.0000
    62 H2D         25.9334    31.8361    25.1537 H            1 NAD401   0.0000
    63 H19         27.7230    33.3116    25.4767 H            1 NAD401   0.0000
    64 H1D         27.1258    31.6438    22.5577 H            1 NAD401   0.0000
    65 H2N         26.1740    33.4054    21.5798 H            1 NAD401   0.0000
    66 H7N1        25.5153    36.1214    19.4602 H            1 NAD401   0.0000
    67 H7N2        26.2558    34.8784    20.4125 H            1 NAD401   0.0000
    68 H4N         22.0396    33.7722    21.5128 H            1 NAD401   0.0000
    69 H5N         21.8897    31.9142    23.0395 H            1 NAD401   0.0000
    70 H6N         23.9004    30.8347    23.7750 H            1 NAD401   0.0000
@<TRIPOS>BOND
     1    1    2      ar
     2    1    3      ar
     3    1    4       1
     4    1   23       1
     5    4    5       1
     6    5    6       1
     7    6    7       1
     8    6    8       1
     9    7   12       1
    10    8    9       1
    11    8   10       1
    12   10   11       1
    13   10   12       1
    14   12   13       1
    15   13   14       1
    16   13   22       1
    17   14   15       2
    18   15   16       1
    19   16   17      ar
    20   16   22      ar
    21   17   18       1
    22   17   19      ar
    23   19   20      ar
    24   20   21      ar
    25   21   22      ar
    26   23   24       1
    27   24   25      ar
    28   24   26      ar
    29   24   27       1
    30   27   28       1
    31   28   29       1
    32   29   30       1
    33   29   31       1
    34   30   35       1
    35   31   32       1
    36   31   33       1
    37   33   34       1
    38   33   35       1
    39   35   36       1
    40   36   37      ar
    41   36   44      ar
    42   37   38      ar
    43   38   39       1
    44   38   42      ar
    45   39   40       2
    46   39   41      am
    47   42   43      ar
    48   43   44      ar
    49   44   70       1
    50    5   45       1
    51    5   46       1
    52    6   47       1
    53    8   48       1
    54    9   49       1
    55   10   50       1
    56   11   51       1
    57   12   52       1
    58   14   53       1
    59   18   54       1
    60   18   55       1
    61   20   56       1
    62   43   69       1
    63   28   57       1
    64   28   58       1
    65   29   59       1
    66   31   60       1
    67   32   61       1
    68   33   62       1
    69   34   63       1
    70   35   64       1
    71   37   65       1
    72   41   66       1
    73   41   67       1
    74   42   68       1
@<TRIPOS>SUBSTRUCTURE
     1 NAD401      1 GROUP             4 A     NAD     0 **** NAD A 401
