@<TRIPOS>MOLECULE
4gqt_ADP_2_ligand
   39    41     1     0     0
SMALL
NO_CHARGES


@<TRIPOS>ATOM
     1 PB          15.2740    18.9580    59.0270 P.3          1 ADP500   0.0000
     2 O1B         14.2040    18.6170    58.0670 O.co2        1 ADP500   0.0000
     3 O2B         15.4130    20.4320    59.2020 O.co2        1 ADP500  -1.0000
     4 O3B         15.4130    18.1200    60.2450 O.co2        1 ADP500  -1.0000
     5 PA          16.6780    17.8920    56.7310 P.3          1 ADP500   0.0000
     6 O1A         15.6010    16.9130    56.3760 O.co2        1 ADP500   0.0000
     7 O2A         18.0880    17.4700    56.4360 O.co2        1 ADP500  -1.0000
     8 O3A         16.5810    18.4670    58.2320 O.3          1 ADP500   0.0000
     9 O5'         16.5230    19.2510    55.9230 O.3          1 ADP500   0.0000
    10 C5'         17.5270    20.2600    55.9730 C.3          1 ADP500   0.0000
    11 C4'         16.9030    21.6150    55.6880 C.3          1 ADP500   0.0000
    12 O4'         16.8030    21.7870    54.2800 O.3          1 ADP500   0.0000
    13 C3'         15.4680    21.8670    56.1110 C.3          1 ADP500   0.0000
    14 O3'         15.4620    22.3350    57.4850 O.3          1 ADP500   0.0000
    15 C2'         14.9940    22.9460    55.1690 C.3          1 ADP500   0.0000
    16 O2'         15.4590    24.2400    55.5940 O.3          1 ADP500   0.0000
    17 C1'         15.7580    22.6370    53.8700 C.3          1 ADP500   0.0000
    18 N9          14.8290    21.8410    53.0340 N.pl3        1 ADP500   0.0000
    19 C8          14.8060    20.4790    52.8600 C.2          1 ADP500   0.0000
    20 N7          13.8230    20.1540    51.9710 N.2          1 ADP500   0.0000
    21 C5          13.1830    21.3110    51.6270 C.ar         1 ADP500   0.0000
    22 C6          11.9790    21.6690    50.8400 C.ar         1 ADP500   0.0000
    23 N6          11.3320    20.6530    50.2010 N.pl3        1 ADP500   0.0000
    24 N1          11.6240    22.9600    50.6940 N.ar         1 ADP500   0.0000
    25 C2          12.2390    23.9380    51.3680 C.ar         1 ADP500   0.0000
    26 N3          13.2950    23.6660    52.1800 N.ar         1 ADP500   0.0000
    27 C4          13.7940    22.3950    52.3570 C.ar         1 ADP500   0.0000
    28 H5'1        18.2283    20.0658    55.2871 H            1 ADP500   0.0000
    29 H5'2        17.9435    20.2701    56.8821 H            1 ADP500   0.0000
    30 H4'         17.4880    22.3325    56.0661 H            1 ADP500   0.0000
    31 H3'         14.9158    21.0391    56.0130 H            1 ADP500   0.0000
    32 H5          15.3936    21.5522    58.1035 H            1 ADP500   0.0000
    33 H2'         14.0028    22.9249    55.0385 H            1 ADP500   0.0000
    34 H7          16.3465    24.4297    55.1741 H            1 ADP500   0.0000
    35 H1'         16.0866    23.4607    53.4080 H            1 ADP500   0.0000
    36 H9          15.4142    19.8276    53.3136 H            1 ADP500   0.0000
    37 H10         10.5147    20.8443    49.6575 H            1 ADP500   0.0000
    38 H11         11.6748    19.7166    50.2759 H            1 ADP500   0.0000
    39 H12         11.9183    24.8805    51.2736 H            1 ADP500   0.0000
@<TRIPOS>BOND
     1    1    2      ar
     2    1    3      ar
     3    1    4      ar
     4    1    8       1
     5    5    6      ar
     6    5    7      ar
     7    5    8       1
     8    5    9       1
     9    9   10       1
    10   10   11       1
    11   11   12       1
    12   11   13       1
    13   12   17       1
    14   13   14       1
    15   13   15       1
    16   15   16       1
    17   15   17       1
    18   17   18       1
    19   18   19       1
    20   18   27       1
    21   19   20       2
    22   20   21       1
    23   21   22      ar
    24   21   27      ar
    25   22   23       1
    26   22   24      ar
    27   24   25      ar
    28   25   26      ar
    29   26   27      ar
    30   25   39       1
    31   23   38       1
    32   23   37       1
    33   10   28       1
    34   10   29       1
    35   11   30       1
    36   13   31       1
    37   14   32       1
    38   15   33       1
    39   16   34       1
    40   17   35       1
    41   19   36       1
@<TRIPOS>SUBSTRUCTURE
     1 ADP500      1 GROUP             4 B     ADP     0 **** ADP B 500
