@<TRIPOS>MOLECULE
2z3u_CRR_1_ligand
   43    47     1     0     0
SMALL
NO_CHARGES


@<TRIPOS>ATOM
     1 C5          -7.5120    -2.6540   -26.8450 C.ar         1 CRR501   0.0000
     2 C4          -8.0390    -2.9520   -28.0970 C.ar         1 CRR501   0.0000
     3 C3          -7.3770    -3.8530   -28.9240 C.ar         1 CRR501   0.0000
     4 C2          -6.1950    -4.4510   -28.4990 C.ar         1 CRR501   0.0000
     5 C1          -5.6690    -4.1480   -27.2470 C.ar         1 CRR501   0.0000
     6 C20         -6.3290    -3.2480   -26.4200 C.ar         1 CRR501   0.0000
     7 N3          -6.0740    -2.8030   -25.1910 N.pl3        1 CRR501   0.0000
     8 C19         -7.0370    -1.9650   -24.8100 C.2          1 CRR501   0.0000
     9 C6          -7.9300    -1.8560   -25.7900 C.2          1 CRR501   0.0000
    10 C7          -9.1240    -1.1380   -25.7930 C.2          1 CRR501   0.0000
    11 C8          -9.5070    -0.1190   -26.6560 C.2          1 CRR501   0.0000
    12 C36         -8.7050     0.4360   -27.8340 C.2          1 CRR501   0.0000
    13 O39         -7.5670    -0.0300   -28.0550 O.co2        1 CRR501   0.0000
    14 O40         -9.2370     1.3430   -28.5110 O.co2        1 CRR501  -1.0000
    15 N1         -10.6950     0.3580   -26.2860 N.pl3        1 CRR501   0.0000
    16 C9         -11.0990    -0.3110   -25.2080 C.2          1 CRR501   0.0000
    17 C35        -12.4510    -0.0720   -24.5310 C.2          1 CRR501   0.0000
    18 O37        -13.1570     0.8560   -24.9850 O.2          1 CRR501   0.0000
    19 O38        -12.7880    -0.8030   -23.5760 O.3          1 CRR501   0.0000
    20 C10        -10.1400    -1.2560   -24.8560 C.2          1 CRR501   0.0000
    21 C11        -10.1830    -2.1760   -23.8140 C.2          1 CRR501   0.0000
    22 C12        -10.3590    -1.8260   -22.4800 C.ar         1 CRR501   0.0000
    23 C13        -10.5670    -0.6190   -21.8240 C.ar         1 CRR501   0.0000
    24 C14        -10.6580    -0.6010   -20.4360 C.ar         1 CRR501   0.0000
    25 C15        -10.5430    -1.7840   -19.7150 C.ar         1 CRR501   0.0000
    26 C16        -10.3360    -2.9910   -20.3730 C.ar         1 CRR501   0.0000
    27 C17        -10.2430    -3.0080   -21.7600 C.ar         1 CRR501   0.0000
    28 N2         -10.0160    -3.9890   -22.6300 N.pl3        1 CRR501   0.0000
    29 C18         -9.9780    -3.4900   -23.8640 C.2          1 CRR501   0.0000
    30 H1          -8.8887    -2.5211   -28.4007 H            1 CRR501   0.0000
    31 H2          -7.7511    -4.0713   -29.8253 H            1 CRR501   0.0000
    32 H3          -5.7222    -5.1002   -29.0948 H            1 CRR501   0.0000
    33 H4          -4.8182    -4.5769   -26.9434 H            1 CRR501   0.0000
    34 H5          -5.2807    -3.0588   -24.6385 H            1 CRR501   0.0000
    35 H6          -7.0814    -1.4938   -23.9291 H            1 CRR501   0.0000
    36 H7         -11.1976     1.0933   -26.7406 H            1 CRR501   0.0000
    37 H8         -10.6506     0.2301   -22.3455 H            1 CRR501   0.0000
    38 H9         -10.8063     0.2638   -19.9564 H            1 CRR501   0.0000
    39 H10        -10.6096    -1.7667   -18.7174 H            1 CRR501   0.0000
    40 H11        -10.2546    -3.8409   -19.8524 H            1 CRR501   0.0000
    41 H12         -9.8929    -4.9528   -22.3935 H            1 CRR501   0.0000
    42 H13         -9.8202    -4.0195   -24.6975 H            1 CRR501   0.0000
    43 H14        -13.6680    -0.6599   -23.1230 H            1 CRR501   0.0000
@<TRIPOS>BOND
     1    1    2      ar
     2    1    6      ar
     3    1    9       1
     4    2    3      ar
     5    3    4      ar
     6    4    5      ar
     7    5    6      ar
     8    6    7       1
     9    7    8       1
    10    8    9       2
    11    9   10       1
    12   10   11       2
    13   10   20       1
    14   11   12       1
    15   11   15       1
    16   12   13      ar
    17   12   14      ar
    18   15   16       1
    19   16   17       1
    20   16   20       2
    21   17   18       2
    22   17   19       1
    23   20   21       1
    24   21   22       1
    25   21   29       2
    26   22   23      ar
    27   22   27      ar
    28   23   24      ar
    29   24   25      ar
    30   25   26      ar
    31   26   27      ar
    32   27   28       1
    33   28   29       1
    34    2   30       1
    35    3   31       1
    36    4   32       1
    37    5   33       1
    38    7   34       1
    39    8   35       1
    40   29   42       1
    41   15   36       1
    42   28   41       1
    43   23   37       1
    44   24   38       1
    45   25   39       1
    46   26   40       1
    47   19   43       1
@<TRIPOS>SUBSTRUCTURE
     1 CRR501      1 GROUP             4 A     CRR     0 **** CRR A 501
