@<TRIPOS>MOLECULE
1gq2_NAP_5_ligand
   73    77     1     0     0
SMALL
NO_CHARGES


@<TRIPOS>ATOM
     1 PA          16.4550   -17.5390    40.9320 P.3          1 NAP1581   0.0000
     2 O1A         16.9170   -18.7300    40.1980 O.co2        1 NAP1581   0.0000
     3 O2A         17.2140   -16.2780    40.8090 O.co2        1 NAP1581  -1.0000
     4 O5B         16.2990   -17.8710    42.4870 O.3          1 NAP1581   0.0000
     5 C5B         15.9230   -19.1760    42.9470 C.3          1 NAP1581   0.0000
     6 C4B         16.5300   -19.3880    44.3280 C.3          1 NAP1581   0.0000
     7 O4B         16.0110   -20.6100    44.9350 O.3          1 NAP1581   0.0000
     8 C3B         18.0300   -19.5540    44.2450 C.3          1 NAP1581   0.0000
     9 O3B         18.6940   -18.6880    45.1990 O.3          1 NAP1581   0.0000
    10 C2B         18.2940   -20.9740    44.6080 C.3          1 NAP1581   0.0000
    11 O2B         19.5940   -21.1150    45.2320 O.3          1 NAP1581   0.0000
    12 C1B         17.1540   -21.3020    45.5080 C.3          1 NAP1581   0.0000
    13 N9A         16.8960   -22.7390    45.6660 N.pl3        1 NAP1581   0.0000
    14 C8A         16.8600   -23.7150    44.6890 C.2          1 NAP1581   0.0000
    15 N7A         16.5750   -24.9040    45.2780 N.2          1 NAP1581   0.0000
    16 C5A         16.4520   -24.6150    46.5480 C.ar         1 NAP1581   0.0000
    17 C6A         16.1400   -25.5740    47.4940 C.ar         1 NAP1581   0.0000
    18 N6A         15.9770   -26.8530    47.1650 N.pl3        1 NAP1581   0.0000
    19 N1A         16.0150   -25.1450    48.7930 N.ar         1 NAP1581   0.0000
    20 C2A         16.1980   -23.8140    49.1040 C.ar         1 NAP1581   0.0000
    21 N3A         16.5100   -22.9020    48.1220 N.ar         1 NAP1581   0.0000
    22 C4A         16.6330   -23.3240    46.8250 C.ar         1 NAP1581   0.0000
    23 O3          14.9580   -17.2760    40.5080 O.3          1 NAP1581   0.0000
    24 PN          13.8670   -16.1870    40.8680 P.3          1 NAP1581   0.0000
    25 O1N         13.7990   -15.2160    39.7560 O.co2        1 NAP1581   0.0000
    26 O2N         14.1360   -15.6980    42.2420 O.co2        1 NAP1581  -1.0000
    27 O5D         12.4970   -17.0360    40.8520 O.3          1 NAP1581   0.0000
    28 C5D         12.3240   -18.2280    41.6340 C.3          1 NAP1581   0.0000
    29 C4D         10.8280   -18.5350    41.7600 C.3          1 NAP1581   0.0000
    30 O4D         10.1030   -17.3110    42.1850 O.3          1 NAP1581   0.0000
    31 C3D         10.2400   -18.9630    40.4210 C.3          1 NAP1581   0.0000
    32 O3D          9.5980   -20.2590    40.5320 O.3          1 NAP1581   0.0000
    33 C2D          9.2200   -17.9030    40.0570 C.3          1 NAP1581   0.0000
    34 O2D          8.0340   -18.4900    39.4770 O.3          1 NAP1581   0.0000
    35 C1D          8.9100   -17.1900    41.3510 C.3          1 NAP1581   0.0000
    36 N1N          8.5210   -15.7550    41.1210 N.ar         1 NAP1581   1.0000
    37 C2N          7.1870   -15.3440    41.4320 C.ar         1 NAP1581   0.0000
    38 C3N          6.7800   -14.0170    41.1850 C.ar         1 NAP1581   0.0000
    39 C7N          5.3340   -13.5620    41.5400 C.2          1 NAP1581   0.0000
    40 O7N          4.9537   -12.4041    41.3313 O.2          1 NAP1581   0.0000
    41 N7N          4.5594   -14.5030    42.0890 N.am         1 NAP1581   0.0000
    42 C4N          7.7090   -13.0980    40.6280 C.ar         1 NAP1581   0.0000
    43 C5N          9.0370   -13.4910    40.3190 C.ar         1 NAP1581   0.0000
    44 C6N          9.4520   -14.8110    40.5620 C.ar         1 NAP1581   0.0000
    45 P2B         21.1350   -20.8630    44.7760 P.3          1 NAP1581   0.0000
    46 O1X         21.2250   -21.3940    43.3880 O.co2        1 NAP1581   0.0000
    47 O2X         21.3510   -19.3970    44.8710 O.co2        1 NAP1581  -1.0000
    48 O3X         21.9430   -21.6270    45.7510 O.co2        1 NAP1581  -1.0000
    49 H5B1        16.2685   -19.8700    42.3153 H            1 NAP1581   0.0000
    50 H5B2        14.9266   -19.2415    43.0016 H            1 NAP1581   0.0000
    51 H4B         16.3122   -18.6062    44.9123 H            1 NAP1581   0.0000
    52 H3B         18.3520   -19.3645    43.3174 H            1 NAP1581   0.0000
    53 H5          19.5518   -19.1104    45.4919 H            1 NAP1581   0.0000
    54 H2B         18.2505   -21.5447    43.7880 H            1 NAP1581   0.0000
    55 H1B         17.3404   -20.9126    46.4100 H            1 NAP1581   0.0000
    56 H8A         17.0174   -23.5698    43.7122 H            1 NAP1581   0.0000
    57 H6A1        15.7516   -27.5257    47.8697 H            1 NAP1581   0.0000
    58 H6A2        16.0799   -27.1414    46.2130 H            1 NAP1581   0.0000
    59 H2A         16.1031   -23.5089    50.0516 H            1 NAP1581   0.0000
    60 H5D1        12.7151   -18.0907    42.5441 H            1 NAP1581   0.0000
    61 H5D2        12.7857   -18.9928    41.1847 H            1 NAP1581   0.0000
    62 H4D         10.6892   -19.2595    42.4352 H            1 NAP1581   0.0000
    63 H3D         10.9595   -18.9968    39.7274 H            1 NAP1581   0.0000
    64 H16          8.8439   -20.3146    39.8776 H            1 NAP1581   0.0000
    65 H2D          9.6250   -17.2581    39.4088 H            1 NAP1581   0.0000
    66 H18          7.6243   -17.8451    38.8318 H            1 NAP1581   0.0000
    67 H1D          8.1522   -17.6600    41.8036 H            1 NAP1581   0.0000
    68 H2N          6.5418   -15.9990    41.8253 H            1 NAP1581   0.0000
    69 H7N1         3.6229   -14.2830    42.3623 H            1 NAP1581   0.0000
    70 H7N2         4.9163   -15.4270    42.2265 H            1 NAP1581   0.0000
    71 H4N          7.4218   -12.1567    40.4504 H            1 NAP1581   0.0000
    72 H5N          9.6769   -12.8290    39.9287 H            1 NAP1581   0.0000
    73 H6N         10.3874   -15.0924    40.3481 H            1 NAP1581   0.0000
@<TRIPOS>BOND
     1    1    2      ar
     2    1    3      ar
     3    1    4       1
     4    1   23       1
     5    4    5       1
     6    5    6       1
     7    6    7       1
     8    6    8       1
     9    7   12       1
    10    8    9       1
    11    8   10       1
    12   10   11       1
    13   10   12       1
    14   11   45       1
    15   12   13       1
    16   13   14       1
    17   13   22       1
    18   14   15       2
    19   15   16       1
    20   16   17      ar
    21   16   22      ar
    22   17   18       1
    23   17   19      ar
    24   19   20      ar
    25   20   21      ar
    26   21   22      ar
    27   23   24       1
    28   24   25      ar
    29   24   26      ar
    30   24   27       1
    31   27   28       1
    32   28   29       1
    33   29   30       1
    34   29   31       1
    35   30   35       1
    36   31   32       1
    37   31   33       1
    38   33   34       1
    39   33   35       1
    40   35   36       1
    41   36   37      ar
    42   36   44      ar
    43   37   38      ar
    44   38   39       1
    45   38   42      ar
    46   39   40       2
    47   39   41      am
    48   42   43      ar
    49   43   44      ar
    50   45   46      ar
    51   45   47      ar
    52   45   48      ar
    53   43   72       1
    54    5   49       1
    55    5   50       1
    56    6   51       1
    57    8   52       1
    58    9   53       1
    59   10   54       1
    60   12   55       1
    61   14   56       1
    62   18   57       1
    63   18   58       1
    64   20   59       1
    65   44   73       1
    66   28   60       1
    67   28   61       1
    68   29   62       1
    69   31   63       1
    70   32   64       1
    71   33   65       1
    72   34   66       1
    73   35   67       1
    74   37   68       1
    75   41   69       1
    76   41   70       1
    77   42   71       1
@<TRIPOS>SUBSTRUCTURE
     1 NAP1581     1 GROUP             4 E     NAP     0 **** NAP E1581
