@<TRIPOS>MOLECULE
1afs_TES_1_ligand
   49    52     1     0     0
SMALL
NO_CHARGES


@<TRIPOS>ATOM
     1 C1         -22.5180    11.3170    -0.9480 C.3          1 TES325   0.0000
     2 C2         -22.4760    12.8480    -1.0230 C.3          1 TES325   0.0000
     3 C3         -22.9400    13.3450    -2.3430 C.2          1 TES325   0.0000
     4 O3         -22.3660    14.2240    -2.9420 O.2          1 TES325   0.0000
     5 C4         -24.1190    12.7040    -2.8790 C.2          1 TES325   0.0000
     6 C5         -24.5710    11.5020    -2.4350 C.2          1 TES325   0.0000
     7 C6         -25.7750    10.8850    -3.0880 C.3          1 TES325   0.0000
     8 C7         -25.5600     9.4260    -3.4790 C.3          1 TES325   0.0000
     9 C8         -25.0500     8.6540    -2.2570 C.3          1 TES325   0.0000
    10 C9         -23.7630     9.2550    -1.6810 C.3          1 TES325   0.0000
    11 C10        -23.9120    10.7280    -1.2680 C.3          1 TES325   0.0000
    12 C11        -23.1260     8.4900    -0.5000 C.3          1 TES325   0.0000
    13 C12        -22.9310     7.0130    -0.8740 C.3          1 TES325   0.0000
    14 C13        -24.2400     6.3860    -1.3520 C.3          1 TES325   0.0000
    15 C14        -24.7720     7.1850    -2.5490 C.3          1 TES325   0.0000
    16 C15        -25.8940     6.3220    -3.1300 C.3          1 TES325   0.0000
    17 C16        -25.3510     4.8910    -2.9630 C.3          1 TES325   0.0000
    18 C17        -24.0650     5.0280    -2.1060 C.3          1 TES325   0.0000
    19 O17        -23.7920     3.8940    -1.2710 O.3          1 TES325   0.0000
    20 C18        -25.2810     6.2850    -0.2210 C.3          1 TES325   0.0000
    21 C19        -24.8490    10.8560    -0.0500 C.3          1 TES325   0.0000
    22 H1         -22.2596    11.0371    -0.0234 H            1 TES325   0.0000
    23 H2         -21.8593    10.9487    -1.6041 H            1 TES325   0.0000
    24 H3         -21.5359    13.1543    -0.8734 H            1 TES325   0.0000
    25 H4         -23.0667    13.2240    -0.3091 H            1 TES325   0.0000
    26 H5         -24.6242    13.1651    -3.6085 H            1 TES325   0.0000
    27 H6         -25.9927    11.4070    -3.9127 H            1 TES325   0.0000
    28 H7         -26.5435    10.9339    -2.4500 H            1 TES325   0.0000
    29 H8         -24.8858     9.3718    -4.2156 H            1 TES325   0.0000
    30 H9         -26.4247     9.0307    -3.7888 H            1 TES325   0.0000
    31 H10        -25.7544     8.6990    -1.5487 H            1 TES325   0.0000
    32 H11        -23.0905     9.2382    -2.4209 H            1 TES325   0.0000
    33 H12        -23.7260     8.5531     0.2975 H            1 TES325   0.0000
    34 H13        -22.2386     8.8964    -0.2825 H            1 TES325   0.0000
    35 H14        -22.6043     6.5138    -0.0715 H            1 TES325   0.0000
    36 H15        -22.2524     6.9487    -1.6057 H            1 TES325   0.0000
    37 H16        -24.0400     7.1759    -3.2303 H            1 TES325   0.0000
    38 H17        -26.0505     6.5370    -4.0940 H            1 TES325   0.0000
    39 H18        -26.7444     6.4458    -2.6186 H            1 TES325   0.0000
    40 H19        -25.1351     4.4936    -3.8549 H            1 TES325   0.0000
    41 H20        -26.0221     4.3157    -2.4954 H            1 TES325   0.0000
    42 H21        -23.2943     5.1306    -2.7349 H            1 TES325   0.0000
    43 H22        -23.6966     3.0768    -1.8394 H            1 TES325   0.0000
    44 H23        -26.1193     5.8707    -0.5755 H            1 TES325   0.0000
    45 H24        -24.9162     5.7189     0.5182 H            1 TES325   0.0000
    46 H25        -25.4833     7.1998     0.1285 H            1 TES325   0.0000
    47 H26        -25.7437    10.4705    -0.2757 H            1 TES325   0.0000
    48 H27        -24.4580    10.3594     0.7250 H            1 TES325   0.0000
    49 H28        -24.9529    11.8210     0.1906 H            1 TES325   0.0000
@<TRIPOS>BOND
     1    1    2       1
     2    1   11       1
     3    2    3       1
     4    3    4       2
     5    3    5       1
     6    5    6       2
     7    6    7       1
     8    6   11       1
     9    7    8       1
    10    8    9       1
    11    9   10       1
    12    9   15       1
    13   10   11       1
    14   10   12       1
    15   11   21       1
    16   12   13       1
    17   13   14       1
    18   14   15       1
    19   14   18       1
    20   14   20       1
    21   15   16       1
    22   16   17       1
    23   17   18       1
    24   18   19       1
    25    1   22       1
    26    1   23       1
    27    2   24       1
    28    2   25       1
    29    5   26       1
    30    7   27       1
    31    7   28       1
    32    8   29       1
    33    8   30       1
    34    9   31       1
    35   10   32       1
    36   12   33       1
    37   12   34       1
    38   13   35       1
    39   13   36       1
    40   15   37       1
    41   16   38       1
    42   16   39       1
    43   17   40       1
    44   17   41       1
    45   18   42       1
    46   19   43       1
    47   20   44       1
    48   20   45       1
    49   20   46       1
    50   21   47       1
    51   21   48       1
    52   21   49       1
@<TRIPOS>SUBSTRUCTURE
     1 TES325      1 GROUP             4 A     TES     0 **** TES A 325
