@<TRIPOS>MOLECULE
2wot_ZZG_1_ligand
   60    63     1     0     0
SMALL
NO_CHARGES


@<TRIPOS>ATOM
     1 C1          -2.8880     5.9580     1.2510 C.3          1 ZZG1500   0.0000
     2 O2          -2.7310     5.9440     2.6750 O.3          1 ZZG1500   0.0000
     3 C3          -1.4730     6.1000     3.1800 C.ar         1 ZZG1500   0.0000
     4 C4          -0.3270     6.2740     2.3960 C.ar         1 ZZG1500   0.0000
     5 C5           0.9250     6.4250     2.9850 C.ar         1 ZZG1500   0.0000
     6 N6           2.0400     6.5880     2.1330 N.pl3        1 ZZG1500   0.0000
     7 C7           3.2800     7.1530     2.4490 C.ar         1 ZZG1500   0.0000
     8 C8           3.3560     8.1050     3.4610 C.ar         1 ZZG1500   0.0000
     9 C9           4.5980     8.6530     3.7440 C.ar         1 ZZG1500   0.0000
    10 O10          4.7060     9.5910     4.7500 O.3          1 ZZG1500   0.0000
    11 C11          5.9160    10.1870     4.9920 C.ar         1 ZZG1500   0.0000
    12 C12          6.4100    11.1080     4.0880 C.ar         1 ZZG1500   0.0000
    13 C13          7.6210    11.7310     4.3320 C.ar         1 ZZG1500   0.0000
    14 C14          8.1870    12.7330     3.3440 C.3          1 ZZG1500   0.0000
    15 C15          8.2830    11.3910     5.5220 C.ar         1 ZZG1500   0.0000
    16 C16          9.6110    12.0100     5.8970 C.3          1 ZZG1500   0.0000
    17 N17          7.7980    10.5110     6.4060 N.ar         1 ZZG1500   0.0000
    18 C18          6.6270     9.9100     6.1510 C.ar         1 ZZG1500   0.0000
    19 C19          6.1360     8.9740     7.2070 C.ar         1 ZZG1500   0.0000
    20 C20          5.4370     7.8090     6.8780 C.ar         1 ZZG1500   0.0000
    21 C21          4.9790     6.9850     7.8970 C.ar         1 ZZG1500   0.0000
    22 C22          5.2410     7.3560     9.2110 C.ar         1 ZZG1500   0.0000
    23 C23          5.9370     8.5320     9.4410 C.ar         1 ZZG1500   0.0000
    24 N24          6.3730     9.3330     8.4780 N.ar         1 ZZG1500   0.0000
    25 C25          5.7310     8.2490     3.0220 C.ar         1 ZZG1500   0.0000
    26 C26          5.5310     7.3000     2.0290 C.ar         1 ZZG1500   0.0000
    27 N27          4.3420     6.7570     1.7310 N.ar         1 ZZG1500   0.0000
    28 C28          1.0210     6.3970     4.3770 C.ar         1 ZZG1500   0.0000
    29 C29         -0.1110     6.2230     5.1760 C.ar         1 ZZG1500   0.0000
    30 O30         -0.0310     6.2010     6.5440 O.3          1 ZZG1500   0.0000
    31 C31          1.2610     6.3510     7.1450 C.3          1 ZZG1500   0.0000
    32 C32         -1.3700     6.0830     4.5790 C.ar         1 ZZG1500   0.0000
    33 O33         -2.4870     5.8950     5.3630 O.3          1 ZZG1500   0.0000
    34 C34         -2.8500     7.0800     6.0860 C.3          1 ZZG1500   0.0000
    35 H1          -3.8533     5.8344     1.0208 H            1 ZZG1500   0.0000
    36 H2          -2.5685     6.8337     0.8890 H            1 ZZG1500   0.0000
    37 H3          -2.3518     5.2156     0.8492 H            1 ZZG1500   0.0000
    38 H4          -0.4087     6.2901     1.3995 H            1 ZZG1500   0.0000
    39 H5           1.9299     6.2613     1.1943 H            1 ZZG1500   0.0000
    40 H6           2.5409     8.3851     3.9681 H            1 ZZG1500   0.0000
    41 H7           5.8934    11.3237     3.2594 H            1 ZZG1500   0.0000
    42 H8           9.0621    13.0780     3.6834 H            1 ZZG1500   0.0000
    43 H9           8.3249    12.2875     2.4594 H            1 ZZG1500   0.0000
    44 H10          7.5472    13.4942     3.2377 H            1 ZZG1500   0.0000
    45 H11          9.9153    11.6399     6.7747 H            1 ZZG1500   0.0000
    46 H12         10.2885    11.7976     5.1928 H            1 ZZG1500   0.0000
    47 H13          9.5073    13.0018     5.9714 H            1 ZZG1500   0.0000
    48 H14          5.2691     7.5722     5.9211 H            1 ZZG1500   0.0000
    49 H15          4.4740     6.1467     7.6914 H            1 ZZG1500   0.0000
    50 H16          4.9339     6.7866     9.9735 H            1 ZZG1500   0.0000
    51 H17          6.1214     8.7920    10.3888 H            1 ZZG1500   0.0000
    52 H18          6.6373     8.6259     3.2132 H            1 ZZG1500   0.0000
    53 H19          6.3262     7.0017     1.5011 H            1 ZZG1500   0.0000
    54 H20          1.9161     6.5034     4.8099 H            1 ZZG1500   0.0000
    55 H21          1.1717     6.3162     8.1404 H            1 ZZG1500   0.0000
    56 H22          1.8594     5.6110     6.8380 H            1 ZZG1500   0.0000
    57 H23          1.6537     7.2305     6.8761 H            1 ZZG1500   0.0000
    58 H24         -3.6628     6.8971     6.6392 H            1 ZZG1500   0.0000
    59 H25         -2.0947     7.3509     6.6828 H            1 ZZG1500   0.0000
    60 H26         -3.0455     7.8179     5.4400 H            1 ZZG1500   0.0000
@<TRIPOS>BOND
     1    1    2       1
     2    2    3       1
     3    3    4      ar
     4    3   32      ar
     5    4    5      ar
     6    5    6       1
     7    5   28      ar
     8    6    7       1
     9    7    8      ar
    10    7   27      ar
    11    8    9      ar
    12    9   10       1
    13    9   25      ar
    14   10   11       1
    15   11   12      ar
    16   11   18      ar
    17   12   13      ar
    18   13   14       1
    19   13   15      ar
    20   15   16       1
    21   15   17      ar
    22   17   18      ar
    23   18   19       1
    24   19   20      ar
    25   19   24      ar
    26   20   21      ar
    27   21   22      ar
    28   22   23      ar
    29   23   24      ar
    30   25   26      ar
    31   26   27      ar
    32   28   29      ar
    33   29   30       1
    34   29   32      ar
    35   30   31       1
    36   32   33       1
    37   33   34       1
    38    1   35       1
    39    1   36       1
    40    1   37       1
    41    4   38       1
    42    6   39       1
    43    8   40       1
    44   12   41       1
    45   14   42       1
    46   14   43       1
    47   14   44       1
    48   16   45       1
    49   16   46       1
    50   16   47       1
    51   20   48       1
    52   21   49       1
    53   22   50       1
    54   23   51       1
    55   25   52       1
    56   26   53       1
    57   28   54       1
    58   31   55       1
    59   31   56       1
    60   31   57       1
    61   34   58       1
    62   34   59       1
    63   34   60       1
@<TRIPOS>SUBSTRUCTURE
     1 ZZG1500     1 GROUP             4 A     ZZG     0 **** ZZG A1500
