@<TRIPOS>MOLECULE
2i9p_NAD_1_ligand
   70    74     1     0     0
SMALL
NO_CHARGES


@<TRIPOS>ATOM
     1 PA           7.0020    31.9830    80.9190 P.3          1 NAD500   0.0000
     2 O1A          7.8850    31.5730    79.8090 O.co2        1 NAD500   0.0000
     3 O2A          7.5890    33.1130    81.6800 O.co2        1 NAD500  -1.0000
     4 O5B          6.6770    30.6630    81.7680 O.3          1 NAD500   0.0000
     5 C5B          6.5690    29.3870    81.1850 C.3          1 NAD500   0.0000
     6 C4B          7.1500    28.3490    82.1280 C.3          1 NAD500   0.0000
     7 O4B          6.5940    27.0840    81.8100 O.3          1 NAD500   0.0000
     8 C3B          8.6710    28.2400    81.9880 C.3          1 NAD500   0.0000
     9 O3B          9.3270    28.1210    83.2380 O.3          1 NAD500   0.0000
    10 C2B          8.8570    26.9760    81.1890 C.3          1 NAD500   0.0000
    11 O2B         10.1050    26.3790    81.4480 O.3          1 NAD500   0.0000
    12 C1B          7.6510    26.1610    81.6440 C.3          1 NAD500   0.0000
    13 N9A          7.2700    25.0890    80.7210 N.pl3        1 NAD500   0.0000
    14 C8A          7.3430    25.0620    79.3650 C.2          1 NAD500   0.0000
    15 N7A          6.8920    23.8540    78.9540 N.2          1 NAD500   0.0000
    16 C5A          6.5380    23.1120    80.0180 C.ar         1 NAD500   0.0000
    17 C6A          6.0210    21.8230    80.1640 C.ar         1 NAD500   0.0000
    18 N6A          5.7620    21.0200    79.1310 N.pl3        1 NAD500   0.0000
    19 N1A          5.7530    21.3640    81.4290 N.ar         1 NAD500   0.0000
    20 C2A          6.0000    22.1680    82.5250 C.ar         1 NAD500   0.0000
    21 N3A          6.5160    23.4290    82.3680 N.ar         1 NAD500   0.0000
    22 C4A          6.7760    23.8930    81.1330 C.ar         1 NAD500   0.0000
    23 O3           5.5530    32.4510    80.4720 O.3          1 NAD500   0.0000
    24 PN           4.8070    33.5410    81.3550 P.3          1 NAD500   0.0000
    25 O1N          5.3880    34.8640    81.0110 O.co2        1 NAD500   0.0000
    26 O2N          4.8090    33.0460    82.7510 O.co2        1 NAD500  -1.0000
    27 O5D          3.3090    33.4290    80.7780 O.3          1 NAD500   0.0000
    28 C5D          2.6800    32.1710    80.5980 C.3          1 NAD500   0.0000
    29 C4D          1.3460    32.3260    79.8630 C.3          1 NAD500   0.0000
    30 O4D          0.5770    33.3890    80.4120 O.3          1 NAD500   0.0000
    31 C3D          1.5440    32.6410    78.3800 C.3          1 NAD500   0.0000
    32 O3D          0.6270    31.8710    77.6340 O.3          1 NAD500   0.0000
    33 C2D          1.2810    34.1330    78.2890 C.3          1 NAD500   0.0000
    34 O2D          0.8020    34.5770    77.0360 O.3          1 NAD500   0.0000
    35 C1D          0.2470    34.3220    79.4060 C.3          1 NAD500   0.0000
    36 N1N          0.2000    35.6720    79.9830 N.ar         1 NAD500   1.0000
    37 C2N          1.3380    36.3740    80.2320 C.ar         1 NAD500   0.0000
    38 C3N          1.2510    37.6580    80.7720 C.ar         1 NAD500   0.0000
    39 C7N          2.5040    38.4210    81.0460 C.2          1 NAD500   0.0000
    40 O7N          2.4110    39.7850    81.4130 O.2          1 NAD500   0.0000
    41 N7N          3.6560    37.7490    80.9400 N.am         1 NAD500   0.0000
    42 C4N          0.0270    38.2240    81.0930 C.ar         1 NAD500   0.0000
    43 C5N         -1.1180    37.4930    80.8430 C.ar         1 NAD500   0.0000
    44 C6N         -1.0160    36.2150    80.2840 C.ar         1 NAD500   0.0000
    45 H5B1         7.0725    29.3715    80.3212 H            1 NAD500   0.0000
    46 H5B2         5.6060    29.1794    81.0133 H            1 NAD500   0.0000
    47 H4B          6.9180    28.5879    83.0709 H            1 NAD500   0.0000
    48 H3B          9.0292    29.0249    81.4824 H            1 NAD500   0.0000
    49 H5           9.0027    27.2999    83.7078 H            1 NAD500   0.0000
    50 H2B          8.7771    27.1796    80.2132 H            1 NAD500   0.0000
    51 H7          10.0161    25.7379    82.2103 H            1 NAD500   0.0000
    52 H1B          7.8600    25.7546    82.5335 H            1 NAD500   0.0000
    53 H8A          7.6708    25.8012    78.7766 H            1 NAD500   0.0000
    54 H6A1         5.3918    20.1047    79.2897 H            1 NAD500   0.0000
    55 H6A2         5.9380    21.3332    78.1978 H            1 NAD500   0.0000
    56 H2A          5.8002    21.8266    83.4434 H            1 NAD500   0.0000
    57 H5D1         2.5142    31.7570    81.4931 H            1 NAD500   0.0000
    58 H5D2         3.2815    31.5780    80.0627 H            1 NAD500   0.0000
    59 H4D          0.8286    31.4744    79.9473 H            1 NAD500   0.0000
    60 H3D          2.4818    32.4341    78.1012 H            1 NAD500   0.0000
    61 H17          0.7932    30.8994    77.8022 H            1 NAD500   0.0000
    62 H2D          2.1158    34.6322    78.5213 H            1 NAD500   0.0000
    63 H19         -0.0946    35.0039    77.1541 H            1 NAD500   0.0000
    64 H1D         -0.6581    34.0967    79.0454 H            1 NAD500   0.0000
    65 H2N          2.2313    35.9727    80.0295 H            1 NAD500   0.0000
    66 H7N1         4.5240    38.2143    81.1133 H            1 NAD500   0.0000
    67 H7N2         3.6490    36.7814    80.6874 H            1 NAD500   0.0000
    68 H4N         -0.0257    39.1380    81.4952 H            1 NAD500   0.0000
    69 H5N         -2.0158    37.8758    81.0607 H            1 NAD500   0.0000
    70 H6N         -1.8475    35.6902    80.1018 H            1 NAD500   0.0000
@<TRIPOS>BOND
     1    1    2      ar
     2    1    3      ar
     3    1    4       1
     4    1   23       1
     5    4    5       1
     6    5    6       1
     7    6    7       1
     8    6    8       1
     9    7   12       1
    10    8    9       1
    11    8   10       1
    12   10   11       1
    13   10   12       1
    14   12   13       1
    15   13   14       1
    16   13   22       1
    17   14   15       2
    18   15   16       1
    19   16   17      ar
    20   16   22      ar
    21   17   18       1
    22   17   19      ar
    23   19   20      ar
    24   20   21      ar
    25   21   22      ar
    26   23   24       1
    27   24   25      ar
    28   24   26      ar
    29   24   27       1
    30   27   28       1
    31   28   29       1
    32   29   30       1
    33   29   31       1
    34   30   35       1
    35   31   32       1
    36   31   33       1
    37   33   34       1
    38   33   35       1
    39   35   36       1
    40   36   37      ar
    41   36   44      ar
    42   37   38      ar
    43   38   39       1
    44   38   42      ar
    45   39   40       2
    46   39   41      am
    47   42   43      ar
    48   43   44      ar
    49   44   70       1
    50    5   45       1
    51    5   46       1
    52    6   47       1
    53    8   48       1
    54    9   49       1
    55   10   50       1
    56   11   51       1
    57   12   52       1
    58   14   53       1
    59   18   54       1
    60   18   55       1
    61   20   56       1
    62   43   69       1
    63   28   57       1
    64   28   58       1
    65   29   59       1
    66   31   60       1
    67   32   61       1
    68   33   62       1
    69   34   63       1
    70   35   64       1
    71   37   65       1
    72   41   66       1
    73   41   67       1
    74   42   68       1
@<TRIPOS>SUBSTRUCTURE
     1 NAD500      1 GROUP             4 A     NAD     0 **** NAD A 500
