@<TRIPOS>MOLECULE
3pe1_3NG_1_ligand
   36    39     1     0     0
SMALL
NO_CHARGES


@<TRIPOS>ATOM
     1 C1          22.8240   -31.1000    13.9140 C.ar         1 3NG338   0.0000
     2 C2          22.9680   -30.9530    12.5510 C.ar         1 3NG338   0.0000
     3 C3          23.0140   -32.1010    11.7110 C.ar         1 3NG338   0.0000
     4 C4          22.9010   -33.3760    12.2760 C.ar         1 3NG338   0.0000
     5 C5          22.7470   -33.5340    13.6650 C.ar         1 3NG338   0.0000
     6 C6          22.7120   -32.4030    14.4840 C.ar         1 3NG338   0.0000
     7 C7          23.0290   -28.5330    12.8630 C.ar         1 3NG338   0.0000
     8 C8          23.0820   -29.6040    11.9900 C.ar         1 3NG338   0.0000
     9 N9          22.7630   -29.9970    14.7610 N.ar         1 3NG338   0.0000
    10 C10         22.8630   -28.7490    14.2670 C.ar         1 3NG338   0.0000
    11 C11         23.2860   -27.0390    10.9500 C.ar         1 3NG338   0.0000
    12 N12         23.3340   -28.1060    10.1210 N.ar         1 3NG338   0.0000
    13 C13         23.2310   -29.3630    10.5980 C.ar         1 3NG338   0.0000
    14 C14         23.1340   -27.2130    12.3230 C.ar         1 3NG338   0.0000
    15 N15         22.7820   -27.5810    15.0880 N.pl3        1 3NG338   0.0000
    16 C16         22.6370   -27.5510    16.5100 C.ar         1 3NG338   0.0000
    17 C17         23.0770   -28.5820    17.3350 C.ar         1 3NG338   0.0000
    18 C18         22.9160   -28.4710    18.7120 C.ar         1 3NG338   0.0000
    19 C19         22.3210   -27.3460    19.2560 C.ar         1 3NG338   0.0000
    20 C20         21.8940   -26.3220    18.4330 C.ar         1 3NG338   0.0000
    21 C21         22.0500   -26.4220    17.0650 C.ar         1 3NG338   0.0000
    22 CL22        23.4190   -29.7360    19.7820 Cl           1 3NG338   0.0000
    23 C23         22.5630   -34.9060    14.2460 C.2          1 3NG338   0.0000
    24 O24         22.7240   -34.9030    15.4900 O.co2        1 3NG338   0.0000
    25 O25         22.1500   -35.6830    13.3550 O.co2        1 3NG338  -1.0000
    26 H1          23.1264   -31.9970    10.7228 H            1 3NG338   0.0000
    27 H2          22.9300   -34.1831    11.6863 H            1 3NG338   0.0000
    28 H3          22.6081   -32.5070    15.4731 H            1 3NG338   0.0000
    29 H4          23.3604   -26.1157    10.5733 H            1 3NG338   0.0000
    30 H5          23.2599   -30.1355     9.9637 H            1 3NG338   0.0000
    31 H6          23.0984   -26.4183    12.9290 H            1 3NG338   0.0000
    32 H7          22.8317   -26.6979    14.6214 H            1 3NG338   0.0000
    33 H8          23.5051   -29.3954    16.9412 H            1 3NG338   0.0000
    34 H9          22.2001   -27.2744    20.2461 H            1 3NG338   0.0000
    35 H10         21.4711   -25.5068    18.8289 H            1 3NG338   0.0000
    36 H11         21.7393   -25.6791    16.4721 H            1 3NG338   0.0000
@<TRIPOS>BOND
     1    1    2      ar
     2    1    6      ar
     3    1    9      ar
     4    2    3      ar
     5    2    8      ar
     6    3    4      ar
     7    4    5      ar
     8    5    6      ar
     9    5   23       1
    10    7    8      ar
    11    7   10      ar
    12    7   14      ar
    13    8   13      ar
    14    9   10      ar
    15   10   15       1
    16   11   12      ar
    17   11   14      ar
    18   12   13      ar
    19   15   16       1
    20   16   17      ar
    21   16   21      ar
    22   17   18      ar
    23   18   19      ar
    24   18   22       1
    25   19   20      ar
    26   20   21      ar
    27   23   24      ar
    28   23   25      ar
    29    3   26       1
    30    4   27       1
    31    6   28       1
    32   11   29       1
    33   13   30       1
    34   14   31       1
    35   15   32       1
    36   17   33       1
    37   19   34       1
    38   20   35       1
    39   21   36       1
@<TRIPOS>SUBSTRUCTURE
     1 3NG338      1 GROUP             4 A     3NG     0 **** 3NG A 338
