@<TRIPOS>MOLECULE
4h03_NAD_2_ligand
   70    74     1     0     0
SMALL
NO_CHARGES


@<TRIPOS>ATOM
     1 PA           2.4370   -14.9140    39.2770 P.3          1 NAD501   0.0000
     2 O1A          3.3350   -14.8840    38.0630 O.co2        1 NAD501   0.0000
     3 O2A          1.8740   -13.6290    39.8750 O.co2        1 NAD501  -1.0000
     4 O5B          3.1360   -15.7580    40.4580 O.3          1 NAD501   0.0000
     5 C5B          3.9900   -16.8680    40.1870 C.3          1 NAD501   0.0000
     6 C4B          4.6600   -17.2410    41.4990 C.3          1 NAD501   0.0000
     7 O4B          5.4870   -16.1640    41.9410 O.3          1 NAD501   0.0000
     8 C3B          3.6520   -17.4670    42.6150 C.3          1 NAD501   0.0000
     9 O3B          4.1410   -18.4840    43.5000 O.3          1 NAD501   0.0000
    10 C2B          3.5760   -16.1340    43.3380 C.3          1 NAD501   0.0000
    11 O2B          3.2000   -16.2720    44.7120 O.3          1 NAD501   0.0000
    12 C1B          5.0150   -15.6760    43.2070 C.3          1 NAD501   0.0000
    13 N9A          5.2610   -14.2210    43.2390 N.pl3        1 NAD501   0.0000
    14 C8A          4.7450   -13.2980    42.4030 C.2          1 NAD501   0.0000
    15 N7A          5.2240   -12.0670    42.7100 N.2          1 NAD501   0.0000
    16 C5A          6.0640   -12.2090    43.7490 C.ar         1 NAD501   0.0000
    17 C6A          6.9030   -11.3020    44.5550 C.ar         1 NAD501   0.0000
    18 N6A          6.9000    -9.9790    44.2680 N.pl3        1 NAD501   0.0000
    19 N1A          7.6410   -11.8430    45.5590 N.ar         1 NAD501   0.0000
    20 C2A          7.6290   -13.1680    45.8280 C.ar         1 NAD501   0.0000
    21 N3A          6.8850   -14.0470    45.1240 N.ar         1 NAD501   0.0000
    22 C4A          6.0970   -13.6340    44.0950 C.ar         1 NAD501   0.0000
    23 O3           1.2920   -15.9810    38.9320 O.3          1 NAD501   0.0000
    24 PN          -0.2890   -15.7650    39.1040 P.3          1 NAD501   0.0000
    25 O1N         -0.6260   -14.3070    39.3080 O.co2        1 NAD501   0.0000
    26 O2N         -0.8230   -16.8680    40.1140 O.co2        1 NAD501  -1.0000
    27 O5D         -0.7340   -16.2470    37.6530 O.3          1 NAD501   0.0000
    28 C5D         -0.7350   -15.3550    36.5640 C.3          1 NAD501   0.0000
    29 C4D         -1.6220   -16.0900    35.5820 C.3          1 NAD501   0.0000
    30 O4D         -2.9390   -16.2290    36.1230 O.3          1 NAD501   0.0000
    31 C3D         -1.7320   -15.2280    34.3580 C.3          1 NAD501   0.0000
    32 O3D         -2.0460   -16.0390    33.2210 O.3          1 NAD501   0.0000
    33 C2D         -2.8810   -14.3170    34.7320 C.3          1 NAD501   0.0000
    34 O2D         -3.5590   -13.8160    33.5690 O.3          1 NAD501   0.0000
    35 C1D         -3.7840   -15.1970    35.5950 C.3          1 NAD501   0.0000
    36 N1N         -4.4860   -14.4470    36.6570 N.ar         1 NAD501   1.0000
    37 C2N         -4.2780   -14.6890    37.9730 C.ar         1 NAD501   0.0000
    38 C3N         -4.9630   -13.9640    38.9600 C.ar         1 NAD501   0.0000
    39 C7N         -4.7570   -14.2200    40.4320 C.2          1 NAD501   0.0000
    40 O7N         -5.6440   -13.9260    41.2170 O.2          1 NAD501   0.0000
    41 N7N         -3.6340   -14.7860    40.8750 N.am         1 NAD501   0.0000
    42 C4N         -5.8830   -12.9970    38.5600 C.ar         1 NAD501   0.0000
    43 C5N         -6.0900   -12.7720    37.2040 C.ar         1 NAD501   0.0000
    44 C6N         -5.3750   -13.5160    36.2690 C.ar         1 NAD501   0.0000
    45 H5B1         4.6796   -16.6137    39.5090 H            1 NAD501   0.0000
    46 H5B2         3.4534   -17.6388    39.8437 H            1 NAD501   0.0000
    47 H4B          5.2148   -18.0634    41.3732 H            1 NAD501   0.0000
    48 H3B          2.7595   -17.7201    42.2417 H            1 NAD501   0.0000
    49 H5           3.7971   -18.3156    44.4238 H            1 NAD501   0.0000
    50 H2B          2.9592   -15.5069    42.8624 H            1 NAD501   0.0000
    51 H7           2.7037   -15.4549    45.0055 H            1 NAD501   0.0000
    52 H1B          5.5523   -16.1050    43.9331 H            1 NAD501   0.0000
    53 H8A          4.1015   -13.4930    41.6628 H            1 NAD501   0.0000
    54 H6A1         7.4627    -9.3498    44.8041 H            1 NAD501   0.0000
    55 H6A2         6.3351    -9.6309    43.5199 H            1 NAD501   0.0000
    56 H2A          8.1940   -13.5105    46.5787 H            1 NAD501   0.0000
    57 H5D1         0.1861   -15.2228    36.1978 H            1 NAD501   0.0000
    58 H5D2        -1.1236   -14.4689    36.8166 H            1 NAD501   0.0000
    59 H4D         -1.2354   -16.9836    35.3538 H            1 NAD501   0.0000
    60 H3D         -0.8923   -14.7062    34.2078 H            1 NAD501   0.0000
    61 H17         -2.1182   -15.4604    32.4086 H            1 NAD501   0.0000
    62 H2D         -2.5387   -13.5514    35.2767 H            1 NAD501   0.0000
    63 H19         -3.5094   -12.8173    33.5586 H            1 NAD501   0.0000
    64 H1D         -4.4691   -15.6220    35.0034 H            1 NAD501   0.0000
    65 H2N         -3.6255   -15.3960    38.2459 H            1 NAD501   0.0000
    66 H7N1        -3.5093   -14.9505    41.8535 H            1 NAD501   0.0000
    67 H7N2        -2.9165   -15.0460    40.2288 H            1 NAD501   0.0000
    68 H4N         -6.3897   -12.4697    39.2421 H            1 NAD501   0.0000
    69 H5N         -6.7472   -12.0813    36.9023 H            1 NAD501   0.0000
    70 H6N         -5.5251   -13.3553    35.2935 H            1 NAD501   0.0000
@<TRIPOS>BOND
     1    1    2      ar
     2    1    3      ar
     3    1    4       1
     4    1   23       1
     5    4    5       1
     6    5    6       1
     7    6    7       1
     8    6    8       1
     9    7   12       1
    10    8    9       1
    11    8   10       1
    12   10   11       1
    13   10   12       1
    14   12   13       1
    15   13   14       1
    16   13   22       1
    17   14   15       2
    18   15   16       1
    19   16   17      ar
    20   16   22      ar
    21   17   18       1
    22   17   19      ar
    23   19   20      ar
    24   20   21      ar
    25   21   22      ar
    26   23   24       1
    27   24   25      ar
    28   24   26      ar
    29   24   27       1
    30   27   28       1
    31   28   29       1
    32   29   30       1
    33   29   31       1
    34   30   35       1
    35   31   32       1
    36   31   33       1
    37   33   34       1
    38   33   35       1
    39   35   36       1
    40   36   37      ar
    41   36   44      ar
    42   37   38      ar
    43   38   39       1
    44   38   42      ar
    45   39   40       2
    46   39   41      am
    47   42   43      ar
    48   43   44      ar
    49   44   70       1
    50    5   45       1
    51    5   46       1
    52    6   47       1
    53    8   48       1
    54    9   49       1
    55   10   50       1
    56   11   51       1
    57   12   52       1
    58   14   53       1
    59   18   54       1
    60   18   55       1
    61   20   56       1
    62   43   69       1
    63   28   57       1
    64   28   58       1
    65   29   59       1
    66   31   60       1
    67   32   61       1
    68   33   62       1
    69   34   63       1
    70   35   64       1
    71   37   65       1
    72   41   66       1
    73   41   67       1
    74   42   68       1
@<TRIPOS>SUBSTRUCTURE
     1 NAD501      1 GROUP             4 A     NAD     0 **** NAD A 501
