@<TRIPOS>MOLECULE
3sfz_GBL_2_ligand
   12    12     1     0     0
SMALL
NO_CHARGES


@<TRIPOS>ATOM
     1 CA          10.1900    12.7230   -17.2160 C.3          1 GBL1252   0.0000
     2 C            8.8350    12.6110   -17.8710 C.2          1 GBL1252   0.0000
     3 O            8.2810    13.4990   -18.4980 O.2          1 GBL1252   0.0000
     4 CB          10.4260    11.3480   -16.5630 C.3          1 GBL1252   0.0000
     5 CG           9.4140    10.4640   -17.3030 C.3          1 GBL1252   0.0000
     6 OD           8.3340    11.3820   -17.6520 O.3          1 GBL1252   0.0000
     7 HA1         10.1885    13.4457   -16.5248 H            1 GBL1252   0.0000
     8 HA2         10.8960    12.9151   -17.8976 H            1 GBL1252   0.0000
     9 HB1         10.2356    11.3746   -15.5816 H            1 GBL1252   0.0000
    10 HB2         11.3626    11.0310   -16.7124 H            1 GBL1252   0.0000
    11 HG1          9.0804     9.7317   -16.7093 H            1 GBL1252   0.0000
    12 HG2          9.8227    10.0668   -18.1247 H            1 GBL1252   0.0000
@<TRIPOS>BOND
     1    1    2       1
     2    1    4       1
     3    2    3       2
     4    2    6       1
     5    4    5       1
     6    5    6       1
     7    1    7       1
     8    1    8       1
     9    4    9       1
    10    4   10       1
    11    5   11       1
    12    5   12       1
@<TRIPOS>SUBSTRUCTURE
     1 GBL1252     1 GROUP             4 A     GBL     0 **** GBL A1252
