@<TRIPOS>MOLECULE
4jv3_N32_1_ligand
   57    60     1     0     0
SMALL
NO_CHARGES


@<TRIPOS>ATOM
     1 C1           6.6760    -8.7480    15.7470 C.3          1 N32500   0.0000
     2 O19          9.1080    -6.2150    10.8630 O.2          1 N32500   0.0000
     3 O20         10.8450    -3.2820    13.1480 O.2          1 N32500   0.0000
     4 N28         10.2790    -3.4950    15.3190 N.am         1 N32500   0.0000
     5 C11         10.1280    -3.7570    14.0130 C.2          1 N32500   0.0000
     6 C2           9.0270    -4.7200    13.6240 C.3          1 N32500   0.0000
     7 C3           9.6680    -6.1150    13.5700 C.3          1 N32500   0.0000
     8 C4           8.7720    -7.2280    12.9980 C.3          1 N32500   0.0000
     9 C5           8.4030    -6.9210    11.5620 C.2          1 N32500   0.0000
    10 C6           7.1620    -7.4750    10.9720 C.2          1 N32500   0.0000
    11 C7           6.2510    -8.1040    11.7170 C.2          1 N32500   0.0000
    12 C8           6.4390    -8.3390    13.2040 C.3          1 N32500   0.0000
    13 C9           7.4680    -7.3630    13.8210 C.3          1 N32500   0.0000
    14 C10          7.7270    -7.7380    15.2930 C.3          1 N32500   0.0000
    15 C14          5.0980    -8.0470    13.8710 C.3          1 N32500   0.0000
    16 C15          5.3190    -8.2400    15.3450 C.2          1 N32500   0.0000
    17 C17          4.3610    -7.9860    16.2240 C.2          1 N32500   0.0000
    18 C18          9.6080    -8.5230    12.9680 C.3          1 N32500   0.0000
    19 C28          6.7780    -9.8130    13.4790 C.3          1 N32500   0.0000
    20 C29          6.9250   -10.0490    14.9890 C.3          1 N32500   0.0000
    21 O30          9.8290    -1.0700    16.7540 O.3          1 N32500   0.0000
    22 O31         12.9220    -4.2600    14.9450 O.3          1 N32500   0.0000
    23 O32         15.2910    -3.8920    15.2910 O.co2        1 N32500   0.0000
    24 O33         16.0640    -2.1060    16.3170 O.co2        1 N32500  -1.0000
    25 C21         15.1090    -2.7960    15.8920 C.2          1 N32500   0.0000
    26 C22         13.7040    -2.3320    16.1140 C.ar         1 N32500   0.0000
    27 C23         12.6480    -3.0940    15.6190 C.ar         1 N32500   0.0000
    28 C24         11.3270    -2.6790    15.8100 C.ar         1 N32500   0.0000
    29 C25         11.0890    -1.5000    16.5200 C.ar         1 N32500   0.0000
    30 C26         12.1450    -0.7460    17.0070 C.ar         1 N32500   0.0000
    31 C27         13.4550    -1.1620    16.8080 C.ar         1 N32500   0.0000
    32 H1           6.7245    -8.8949    16.7350 H            1 N32500   0.0000
    33 H2           9.6292    -3.8894    15.9688 H            1 N32500   0.0000
    34 H3           8.6547    -4.4758    12.7286 H            1 N32500   0.0000
    35 H4           8.2953    -4.7020    14.3054 H            1 N32500   0.0000
    36 H5           9.9252    -6.3732    14.5012 H            1 N32500   0.0000
    37 H6          10.4887    -6.0562    13.0017 H            1 N32500   0.0000
    38 H7           7.0029    -7.3749     9.9898 H            1 N32500   0.0000
    39 H8           5.4140    -8.4324    11.2793 H            1 N32500   0.0000
    40 H9           7.0384    -6.4600    13.8269 H            1 N32500   0.0000
    41 H10          8.6379    -8.1414    15.3799 H            1 N32500   0.0000
    42 H11          7.6701    -6.9176    15.8620 H            1 N32500   0.0000
    43 H12          4.3991    -8.6802    13.5384 H            1 N32500   0.0000
    44 H13          4.8132    -7.1072    13.6823 H            1 N32500   0.0000
    45 H14          3.4727    -7.6491    15.9120 H            1 N32500   0.0000
    46 H15          4.5262    -8.1312    17.1995 H            1 N32500   0.0000
    47 H16          9.0534    -9.2693    12.6001 H            1 N32500   0.0000
    48 H17         10.4115    -8.3877    12.3883 H            1 N32500   0.0000
    49 H18          9.9014    -8.7520    13.8962 H            1 N32500   0.0000
    50 H19          7.6371   -10.0452    13.0230 H            1 N32500   0.0000
    51 H20          6.0447   -10.3927    13.1237 H            1 N32500   0.0000
    52 H21          6.2606   -10.7360    15.2831 H            1 N32500   0.0000
    53 H22          7.8500   -10.3746    15.1848 H            1 N32500   0.0000
    54 H23          9.0497    -1.5983    16.4170 H            1 N32500   0.0000
    55 H24         13.8697    -4.5516    14.8152 H            1 N32500   0.0000
    56 H25         11.9627     0.1022    17.5044 H            1 N32500   0.0000
    57 H26         14.2145    -0.6181    17.1648 H            1 N32500   0.0000
@<TRIPOS>BOND
     1    1   14       1
     2    1   16       1
     3    1   20       1
     4    2    9       2
     5    3    5       2
     6    4    5      am
     7    4   28       1
     8    5    6       1
     9    6    7       1
    10    7    8       1
    11    8    9       1
    12    8   13       1
    13    8   18       1
    14    9   10       1
    15   10   11       2
    16   11   12       1
    17   12   13       1
    18   12   15       1
    19   12   19       1
    20   13   14       1
    21   15   16       1
    22   16   17       2
    23   19   20       1
    24   21   29       1
    25   22   27       1
    26   23   25      ar
    27   24   25      ar
    28   25   26       1
    29   26   27      ar
    30   26   31      ar
    31   27   28      ar
    32   28   29      ar
    33   29   30      ar
    34   30   31      ar
    35    1   32       1
    36    4   33       1
    37    6   34       1
    38    6   35       1
    39    7   36       1
    40    7   37       1
    41   10   38       1
    42   11   39       1
    43   13   40       1
    44   14   41       1
    45   14   42       1
    46   15   43       1
    47   15   44       1
    48   17   45       1
    49   17   46       1
    50   18   47       1
    51   18   48       1
    52   18   49       1
    53   19   50       1
    54   19   51       1
    55   20   52       1
    56   20   53       1
    57   21   54       1
    58   22   55       1
    59   31   57       1
    60   30   56       1
@<TRIPOS>SUBSTRUCTURE
     1 N32500      1 GROUP             4 A     N32     0 **** N32 A 500
