@<TRIPOS>MOLECULE
4xbo_SAH_1_ligand
   46    48     1     0     0
SMALL
NO_CHARGES


@<TRIPOS>ATOM
     1 N          -35.1600   -24.4200    -0.6680 N.4          1 SAH301   1.0000
     2 CA         -34.9310   -25.0030    -1.9820 C.3          1 SAH301   0.0000
     3 CB         -34.3580   -23.8840    -2.8660 C.3          1 SAH301   0.0000
     4 CG         -34.7730   -23.9510    -4.3290 C.3          1 SAH301   0.0000
     5 SD         -33.3740   -23.7300    -5.4520 S.3          1 SAH301   0.0000
     6 C          -34.1090   -26.3260    -1.9160 C.2          1 SAH301   0.0000
     7 O          -32.8760   -26.3920    -1.9710 O.co2        1 SAH301   0.0000
     8 OXT        -34.6670   -27.4150    -1.8230 O.co2        1 SAH301  -1.0000
     9 C5'        -33.9940   -24.8120    -6.7560 C.3          1 SAH301   0.0000
    10 C4'        -33.2340   -26.1190    -6.8600 C.3          1 SAH301   0.0000
    11 O4'        -31.8180   -25.9020    -6.8700 O.3          1 SAH301   0.0000
    12 C3'        -33.4890   -27.0280    -5.6710 C.3          1 SAH301   0.0000
    13 O3'        -34.5900   -27.8590    -5.8950 O.3          1 SAH301   0.0000
    14 C2'        -32.2100   -27.8370    -5.5770 C.3          1 SAH301   0.0000
    15 O2'        -32.2390   -28.9080    -6.4840 O.3          1 SAH301   0.0000
    16 C1'        -31.1580   -26.9000    -6.1110 C.3          1 SAH301   0.0000
    17 N9         -30.3440   -26.3490    -5.0070 N.pl3        1 SAH301   0.0000
    18 C8         -30.2070   -25.0540    -4.6270 C.2          1 SAH301   0.0000
    19 N7         -29.3400   -25.0120    -3.5940 N.2          1 SAH301   0.0000
    20 C5         -28.9100   -26.2570    -3.2770 C.ar         1 SAH301   0.0000
    21 C6         -28.0350   -26.7690    -2.3080 C.ar         1 SAH301   0.0000
    22 N6         -27.3980   -25.9930    -1.4120 N.pl3        1 SAH301   0.0000
    23 N1         -27.8320   -28.1280    -2.3030 N.ar         1 SAH301   0.0000
    24 C2         -28.4570   -28.9660    -3.1970 C.ar         1 SAH301   0.0000
    25 N3         -29.3140   -28.4600    -4.1390 N.ar         1 SAH301   0.0000
    26 C4         -29.5390   -27.1140    -4.1800 C.ar         1 SAH301   0.0000
    27 H1         -36.0859   -24.0444    -0.6267 H            1 SAH301   0.0000
    28 H2         -35.0551   -25.1257     0.0327 H            1 SAH301   0.0000
    29 HA         -35.8284   -25.2373    -2.3559 H            1 SAH301   0.0000
    30 HB1        -33.3602   -23.9337    -2.8230 H            1 SAH301   0.0000
    31 HB2        -34.6643   -23.0071    -2.4955 H            1 SAH301   0.0000
    32 HG1        -35.4439   -23.2308    -4.5059 H            1 SAH301   0.0000
    33 HG2        -35.1881   -24.8437    -4.5046 H            1 SAH301   0.0000
    34 H5'1       -33.9201   -24.3312    -7.6297 H            1 SAH301   0.0000
    35 H5'2       -34.9546   -25.0171    -6.5686 H            1 SAH301   0.0000
    36 H4'        -33.5018   -26.5909    -7.7000 H            1 SAH301   0.0000
    37 H3'        -33.6224   -26.4875    -4.8403 H            1 SAH301   0.0000
    38 H12        -34.7333   -28.4447    -5.0972 H            1 SAH301   0.0000
    39 H2'        -32.0156   -28.1348    -4.6424 H            1 SAH301   0.0000
    40 H14        -31.7017   -29.6684    -6.1192 H            1 SAH301   0.0000
    41 H1'        -30.5561   -27.4151    -6.7212 H            1 SAH301   0.0000
    42 H16        -30.6677   -24.2684    -5.0400 H            1 SAH301   0.0000
    43 H17        -26.7833   -26.4063    -0.7402 H            1 SAH301   0.0000
    44 H18        -27.5393   -25.0031    -1.4180 H            1 SAH301   0.0000
    45 H19        -28.2849   -29.9504    -3.1593 H            1 SAH301   0.0000
    46 H20        -34.4964   -23.6894    -0.5072 H            1 SAH301   0.0000
@<TRIPOS>BOND
     1    1    2       1
     2    2    3       1
     3    2    6       1
     4    3    4       1
     5    4    5       1
     6    5    9       1
     7    6    7      ar
     8    6    8      ar
     9    9   10       1
    10   10   11       1
    11   10   12       1
    12   11   16       1
    13   12   13       1
    14   12   14       1
    15   14   15       1
    16   14   16       1
    17   16   17       1
    18   17   18       1
    19   17   26       1
    20   18   19       2
    21   19   20       1
    22   20   21      ar
    23   20   26      ar
    24   21   22       1
    25   21   23      ar
    26   23   24      ar
    27   24   25      ar
    28   25   26      ar
    29    1   27       1
    30    1   28       1
    31    2   29       1
    32    3   30       1
    33    3   31       1
    34    4   32       1
    35    4   33       1
    36    1   46       1
    37    9   34       1
    38    9   35       1
    39   10   36       1
    40   12   37       1
    41   13   38       1
    42   14   39       1
    43   15   40       1
    44   16   41       1
    45   18   42       1
    46   22   43       1
    47   22   44       1
    48   24   45       1
@<TRIPOS>SUBSTRUCTURE
     1 SAH301      1 GROUP             4 A     SAH     0 **** SAH A 301
