@<TRIPOS>MOLECULE
2fre_FMN_2_ligand
   50    52     1     0     0
SMALL
NO_CHARGES


@<TRIPOS>ATOM
     1 N1          26.0680    15.5640    22.5600 N.2          1 FMN1152   0.0000
     2 C2          26.7730    15.6520    21.3650 C.2          1 FMN1152   0.0000
     3 O2          26.2020    16.1720    20.4110 O.2          1 FMN1152   0.0000
     4 N3          28.0780    15.2480    21.2820 N.pl3        1 FMN1152   0.0000
     5 C4          28.7070    14.6980    22.3770 C.2          1 FMN1152   0.0000
     6 O4          29.9410    14.5860    22.3920 O.2          1 FMN1152   0.0000
     7 C4A         27.9880    14.5880    23.5670 C.2          1 FMN1152   0.0000
     8 N5          28.5800    14.0450    24.6900 N.2          1 FMN1152   0.0000
     9 C5A         27.8910    14.0090    25.8870 C.ar         1 FMN1152   0.0000
    10 C6          28.5120    13.5060    27.0210 C.ar         1 FMN1152   0.0000
    11 C7          27.8400    13.4670    28.2490 C.ar         1 FMN1152   0.0000
    12 C7M         28.7090    13.4020    29.4740 C.3          1 FMN1152   0.0000
    13 C8          26.5330    13.9420    28.3430 C.ar         1 FMN1152   0.0000
    14 C8M         25.9850    14.4520    29.6680 C.3          1 FMN1152   0.0000
    15 C9          25.9140    14.4250    27.2040 C.ar         1 FMN1152   0.0000
    16 C9A         26.5890    14.4520    25.9790 C.ar         1 FMN1152   0.0000
    17 N10         25.9520    14.9360    24.8560 N.pl3        1 FMN1152   0.0000
    18 C10         26.6730    15.0270    23.6600 C.2          1 FMN1152   0.0000
    19 C1'         24.4570    15.0950    24.8340 C.3          1 FMN1152   0.0000
    20 C2'         23.5710    13.9000    25.2070 C.3          1 FMN1152   0.0000
    21 O2'         23.3580    13.0590    24.0610 O.3          1 FMN1152   0.0000
    22 C3'         22.2140    14.3980    25.7040 C.3          1 FMN1152   0.0000
    23 O3'         22.3990    15.1280    26.9040 O.3          1 FMN1152   0.0000
    24 C4'         21.2070    13.2390    25.8950 C.3          1 FMN1152   0.0000
    25 O4'         20.8340    12.6830    24.6330 O.3          1 FMN1152   0.0000
    26 C5'         19.9370    13.6450    26.6030 C.3          1 FMN1152   0.0000
    27 O5'         19.3530    14.7370    25.9590 O.3          1 FMN1152   0.0000
    28 P           18.9930    16.1140    26.6980 P.3          1 FMN1152   0.0000
    29 O1P         17.8540    15.9030    27.6380 O.co2        1 FMN1152   0.0000
    30 O2P         20.2280    16.5580    27.4330 O.co2        1 FMN1152  -1.0000
    31 O3P         18.5380    17.1070    25.6700 O.co2        1 FMN1152  -1.0000
    32 H1          28.5774    15.3527    20.4220 H            1 FMN1152   0.0000
    33 H2          29.4509    13.1672    26.9608 H            1 FMN1152   0.0000
    34 H7M1        28.1325    13.3783    30.2908 H            1 FMN1152   0.0000
    35 H7M2        29.2724    12.5766    29.4396 H            1 FMN1152   0.0000
    36 H7M3        29.3001    14.2079    29.5065 H            1 FMN1152   0.0000
    37 H8M1        25.0384    14.7498    29.5447 H            1 FMN1152   0.0000
    38 H8M2        26.0180    13.7185    30.3468 H            1 FMN1152   0.0000
    39 H8M3        26.5386    15.2229    29.9831 H            1 FMN1152   0.0000
    40 H9          24.9728    14.7588    27.2570 H            1 FMN1152   0.0000
    41 H1'1        24.2058    15.3659    23.9047 H            1 FMN1152   0.0000
    42 H1'2        24.2326    15.8343    25.4689 H            1 FMN1152   0.0000
    43 H2'         24.0151    13.3702    25.9296 H            1 FMN1152   0.0000
    44 H13         22.4665    12.6123    24.1365 H            1 FMN1152   0.0000
    45 H3'         21.8420    15.0215    25.0163 H            1 FMN1152   0.0000
    46 H15         21.5141    15.4565    27.2341 H            1 FMN1152   0.0000
    47 H4'         21.6513    12.5233    26.4339 H            1 FMN1152   0.0000
    48 H17         20.4092    13.3913    24.0692 H            1 FMN1152   0.0000
    49 H5'1        20.1508    13.8944    27.5475 H            1 FMN1152   0.0000
    50 H5'2        19.2962    12.8773    26.5978 H            1 FMN1152   0.0000
@<TRIPOS>BOND
     1    1    2       1
     2    1   18       2
     3    2    3       2
     4    2    4       1
     5    4    5       1
     6    5    6       2
     7    5    7       1
     8    7    8       2
     9    7   18       1
    10    8    9       1
    11    9   10      ar
    12    9   16      ar
    13   10   11      ar
    14   11   12       1
    15   11   13      ar
    16   13   14       1
    17   13   15      ar
    18   15   16      ar
    19   16   17       1
    20   17   18       1
    21   17   19       1
    22   19   20       1
    23   20   21       1
    24   20   22       1
    25   22   23       1
    26   22   24       1
    27   24   25       1
    28   24   26       1
    29   26   27       1
    30   27   28       1
    31   28   29      ar
    32   28   30      ar
    33   28   31      ar
    34    4   32       1
    35   10   33       1
    36   12   34       1
    37   12   35       1
    38   12   36       1
    39   14   37       1
    40   14   38       1
    41   14   39       1
    42   15   40       1
    43   19   41       1
    44   19   42       1
    45   20   43       1
    46   21   44       1
    47   22   45       1
    48   23   46       1
    49   24   47       1
    50   25   48       1
    51   26   49       1
    52   26   50       1
@<TRIPOS>SUBSTRUCTURE
     1 FMN1152     1 GROUP             4 B     FMN     0 **** FMN B1152
