@<TRIPOS>MOLECULE
4ehy_ADP_1_ligand
   39    41     1     0     0
SMALL
NO_CHARGES


@<TRIPOS>ATOM
     1 PB           6.3110    -3.7660    -3.8990 P.3          1 ADP401   0.0000
     2 O1B          7.6060    -3.0630    -4.2190 O.co2        1 ADP401   0.0000
     3 O2B          5.1470    -3.3390    -4.7650 O.co2        1 ADP401  -1.0000
     4 O3B          6.4660    -5.2720    -3.8700 O.co2        1 ADP401  -1.0000
     5 PA           6.7090    -3.0310    -1.0710 P.3          1 ADP401   0.0000
     6 O1A          5.6120    -3.1120    -0.0460 O.co2        1 ADP401   0.0000
     7 O2A          7.6270    -1.8420    -1.1070 O.co2        1 ADP401  -1.0000
     8 O3A          5.8710    -3.2430    -2.4460 O.3          1 ADP401   0.0000
     9 O5'          7.6460    -4.3140    -0.8970 O.3          1 ADP401   0.0000
    10 C5'          7.0770    -5.6080    -0.7850 C.3          1 ADP401   0.0000
    11 C4'          7.8440    -6.3250     0.3200 C.3          1 ADP401   0.0000
    12 O4'          7.8680    -5.5080     1.5160 O.3          1 ADP401   0.0000
    13 C3'          7.1070    -7.5900     0.6870 C.3          1 ADP401   0.0000
    14 O3'          7.6140    -8.6840    -0.0720 O.3          1 ADP401   0.0000
    15 C2'          7.3800    -7.7380     2.1660 C.3          1 ADP401   0.0000
    16 O2'          8.6560    -8.3630     2.3300 O.3          1 ADP401   0.0000
    17 C1'          7.5150    -6.3090     2.6530 C.3          1 ADP401   0.0000
    18 N9           6.1980    -5.8430     3.1580 N.pl3        1 ADP401   0.0000
    19 C8           5.4560    -4.8520     2.6270 C.2          1 ADP401   0.0000
    20 N7           4.3150    -4.6500     3.3370 N.2          1 ADP401   0.0000
    21 C5           4.3220    -5.5280     4.3580 C.ar         1 ADP401   0.0000
    22 C6           3.4140    -5.8500     5.4860 C.ar         1 ADP401   0.0000
    23 N6           2.2310    -5.1840     5.6750 N.pl3        1 ADP401   0.0000
    24 N1           3.8100    -6.8360     6.3180 N.ar         1 ADP401   0.0000
    25 C2           4.9660    -7.5070     6.1530 C.ar         1 ADP401   0.0000
    26 N3           5.8300    -7.2710     5.1510 N.ar         1 ADP401   0.0000
    27 C4           5.5670    -6.3030     4.2400 C.ar         1 ADP401   0.0000
    28 H5'1         7.1722    -6.1030    -1.6486 H            1 ADP401   0.0000
    29 H5'2         6.1086    -5.5398    -0.5449 H            1 ADP401   0.0000
    30 H4'          8.7746    -6.5358     0.0208 H            1 ADP401   0.0000
    31 H3'          6.1265    -7.4798     0.5245 H            1 ADP401   0.0000
    32 H5           6.8773    -9.0784    -0.6213 H            1 ADP401   0.0000
    33 H2'          6.6511    -8.2331     2.6390 H            1 ADP401   0.0000
    34 H7           8.5446    -9.2223     2.8292 H            1 ADP401   0.0000
    35 H1'          8.2130    -6.2411     3.3658 H            1 ADP401   0.0000
    36 H9           5.7124    -4.3307     1.8130 H            1 ADP401   0.0000
    37 H10          1.6397    -5.4237     6.4450 H            1 ADP401   0.0000
    38 H11          1.9592    -4.4584     5.0429 H            1 ADP401   0.0000
    39 H12          5.1946    -8.2218     6.8139 H            1 ADP401   0.0000
@<TRIPOS>BOND
     1    1    2      ar
     2    1    3      ar
     3    1    4      ar
     4    1    8       1
     5    5    6      ar
     6    5    7      ar
     7    5    8       1
     8    5    9       1
     9    9   10       1
    10   10   11       1
    11   11   12       1
    12   11   13       1
    13   12   17       1
    14   13   14       1
    15   13   15       1
    16   15   16       1
    17   15   17       1
    18   17   18       1
    19   18   19       1
    20   18   27       1
    21   19   20       2
    22   20   21       1
    23   21   22      ar
    24   21   27      ar
    25   22   23       1
    26   22   24      ar
    27   24   25      ar
    28   25   26      ar
    29   26   27      ar
    30   25   39       1
    31   23   38       1
    32   23   37       1
    33   10   28       1
    34   10   29       1
    35   11   30       1
    36   13   31       1
    37   14   32       1
    38   15   33       1
    39   16   34       1
    40   17   35       1
    41   19   36       1
@<TRIPOS>SUBSTRUCTURE
     1 ADP401      1 GROUP             4 A     ADP     0 **** ADP A 401
