@<TRIPOS>MOLECULE
1bx9_GLY_GGL_FOE_1_ligand
   62    62     3     0     0
SMALL
NO_CHARGES


@<TRIPOS>ATOM
     1 N           22.5270    25.6420    23.6660 N.4          1 GGL101   1.0000
     2 CA          21.0470    25.6310    23.8390 C.3          1 GGL101   0.0000
     3 C           20.4150    24.4420    23.1250 C.2          1 GGL101   0.0000
     4 O           19.4540    23.8790    23.6820 O.co2        1 GGL101   0.0000
     5 CB          20.4490    26.9170    23.2920 C.3          1 GGL101   0.0000
     6 CG          18.9600    27.0070    23.4620 C.3          1 GGL101   0.0000
     7 CD          18.3940    28.2990    22.9410 C.2          1 GGL101   0.0000
     8 OE1         19.0250    29.0050    22.1540 O.2          1 GGL101   0.0000
     9 OXT         20.9050    24.0690    22.0410 O.co2        1 GGL101  -1.0000
    10 H1          22.7629    26.1640    22.8463 H            1 GGL101   0.0000
    11 H2          22.9529    26.0660    24.4653 H            1 GGL101   0.0000
    12 HA          20.8377    25.5686    24.8149 H            1 GGL101   0.0000
    13 HB1         20.6598    26.9737    22.3161 H            1 GGL101   0.0000
    14 HB2         20.8690    27.6890    23.7692 H            1 GGL101   0.0000
    15 HG1         18.7440    26.9325    24.4355 H            1 GGL101   0.0000
    16 HG2         18.5350    26.2489    22.9673 H            1 GGL101   0.0000
    17 N           17.1790    28.5970    23.3800 N.am         2 FOE102   0.0000
    18 CA          16.4920    29.7850    22.9940 C.3          2 FOE102   0.0000
    19 C           15.7330    30.2310    24.2280 C.2          2 FOE102   0.0000
    20 O           15.0080    29.4390    24.8320 O.2          2 FOE102   0.0000
    21 CB          15.5180    29.4760    21.8650 C.3          2 FOE102   0.0000
    22 SG          15.2930    30.8420    20.7760 S.3          2 FOE102   0.0000
    23 C1          16.2200    30.0780    19.4090 C.3          2 FOE102   0.0000
    24 C2          16.5530    30.7200    18.0200 C.2          2 FOE102   0.0000
    25 O3          17.2420    29.9950    17.3020 O.2          2 FOE102   0.0000
    26 N4          16.1720    31.9090    17.5460 N.am         2 FOE102   0.0000
    27 C5          16.2540    33.7750    15.8630 C.3          2 FOE102   0.0000
    28 C6          16.7180    32.3530    16.2090 C.3          2 FOE102   0.0000
    29 C7          18.2590    32.4210    16.2600 C.3          2 FOE102   0.0000
    30 C8          14.5430    34.5010    19.5710 C.ar         2 FOE102   0.0000
    31 C9          15.5630    33.7460    18.9590 C.ar         2 FOE102   0.0000
    32 C10         15.2220    32.6440    18.1400 C.ar         2 FOE102   0.0000
    33 C11         13.8620    32.3140    17.9360 C.ar         2 FOE102   0.0000
    34 C12         12.8500    33.0690    18.5490 C.ar         2 FOE102   0.0000
    35 C13         13.1860    34.1600    19.3630 C.ar         2 FOE102   0.0000
    36 F14         12.1870    34.8960    19.9650 F            2 FOE102   0.0000
    37 H8          17.1433    30.4890    22.7108 H            2 FOE102   0.0000
    38 H9          14.6330    29.2334    22.2623 H            2 FOE102   0.0000
    39 H10         15.8711    28.7018    21.3397 H            2 FOE102   0.0000
    40 H11         15.7162    29.2419    19.1920 H            2 FOE102   0.0000
    41 H12         17.1081    29.8395    19.8019 H            2 FOE102   0.0000
    42 H13         16.6296    34.0415    14.9754 H            2 FOE102   0.0000
    43 H14         15.2551    33.7992    15.8231 H            2 FOE102   0.0000
    44 H15         16.5751    34.4105    16.5652 H            2 FOE102   0.0000
    45 H16         16.4284    31.7165    15.4941 H            2 FOE102   0.0000
    46 H17         18.6093    32.7156    15.3709 H            2 FOE102   0.0000
    47 H18         18.5408    33.0746    16.9624 H            2 FOE102   0.0000
    48 H19         18.6255    31.5169    16.4797 H            2 FOE102   0.0000
    49 H20         14.7787    35.2791    20.1533 H            2 FOE102   0.0000
    50 H21         16.5226    33.9877    19.1027 H            2 FOE102   0.0000
    51 H22         13.6202    31.5390    17.3522 H            2 FOE102   0.0000
    52 H23         11.8899    32.8289    18.4053 H            2 FOE102   0.0000
    53 H24         16.7263    27.9630    24.0070 H            2 FOE102   0.0000
    54 N           15.9490    31.4810    24.6320 N.am         3 GLY103   0.0000
    55 CA          15.2660    32.0100    25.7980 C.3          3 GLY103   0.0000
    56 C           16.0850    33.0250    26.5680 C.2          3 GLY103   0.0000
    57 O           17.1650    32.6610    27.0820 O.co2        3 GLY103   0.0000
    58 OXT         15.6350    34.1850    26.6700 O.co2        3 GLY103  -1.0000
    59 HA1         15.0480    31.2494    26.4095 H            3 GLY103   0.0000
    60 HA2         14.4194    32.4489    25.4971 H            3 GLY103   0.0000
    61 H27         16.5882    32.0611    24.1270 H            3 GLY103   0.0000
    62 H28         22.8584    24.7034    23.5703 H            3 GLY103   0.0000
@<TRIPOS>BOND
     1    1    2       1
     2    2    3       1
     3    2    5       1
     4    3    4      ar
     5    3    9      ar
     6    5    6       1
     7    6    7       1
     8    7    8       2
     9    1   10       1
    10    1   11       1
    11    2   12       1
    12    1   62       1
    13    5   13       1
    14    5   14       1
    15    6   15       1
    16    6   16       1
    17   34   52       1
    18    7   17      am
    19   17   18       1
    20   18   19       1
    21   18   21       1
    22   19   20       2
    23   21   22       1
    24   22   23       1
    25   23   24       1
    26   24   25       2
    27   24   26      am
    28   26   28       1
    29   26   32       1
    30   27   28       1
    31   28   29       1
    32   30   31      ar
    33   30   35      ar
    34   31   32      ar
    35   32   33      ar
    36   33   34      ar
    37   34   35      ar
    38   35   36       1
    39   33   51       1
    40   31   50       1
    41   18   37       1
    42   55   60       1
    43   21   38       1
    44   21   39       1
    45   23   40       1
    46   23   41       1
    47   27   42       1
    48   27   43       1
    49   27   44       1
    50   28   45       1
    51   29   46       1
    52   29   47       1
    53   29   48       1
    54   30   49       1
    55   17   53       1
    56   19   54      am
    57   54   55       1
    58   55   56       1
    59   56   57      ar
    60   56   58      ar
    61   55   59       1
    62   54   61       1
@<TRIPOS>SUBSTRUCTURE
     1 GGL101      1 GROUP             4 B     GGL     0 **** GGL B 101
     2 FOE102     17 GROUP             4 B     FOE     0 **** FOE B 102
     3 GLY103     54 RESIDUE           4 B     GLY     0 **** GLY B 103
