@<TRIPOS>MOLECULE
2p3d_3TL_1_ligand
  130   133     1     0     0
SMALL
NO_CHARGES


@<TRIPOS>ATOM
     1 C31         11.5580   -11.6150     8.4780 C.2          1 3TL201   0.0000
     2 O8          10.4450   -11.1330     8.2940 O.2          1 3TL201   0.0000
     3 O9          12.1330   -11.5000     9.8140 O.3          1 3TL201   0.0000
     4 CA          12.0730   -10.2390    10.5180 C.3          1 3TL201   0.0000
     5 C           12.5410    -9.0410     9.6920 C.ar         1 3TL201   0.0000
     6 C13         11.7970    -7.8610     9.6870 C.ar         1 3TL201   0.0000
     7 C14         12.1960    -6.7500     8.9280 C.ar         1 3TL201   0.0000
     8 C15         13.3650    -6.7850     8.1610 C.ar         1 3TL201   0.0000
     9 C16         14.1210    -7.9670     8.1620 C.ar         1 3TL201   0.0000
    10 C17         13.7150    -9.0850     8.9200 C.ar         1 3TL201   0.0000
    11 N4          12.2240   -12.2150     7.4870 N.am         1 3TL201   0.0000
    12 C18         11.7720   -11.9780     6.1080 C.3          1 3TL201   0.0000
    13 C19         11.2260   -13.2090     5.4610 C.2          1 3TL201   0.0000
    14 O4          11.8300   -14.2660     5.5930 O.2          1 3TL201   0.0000
    15 C20         12.9000   -11.4530     5.2180 C.3          1 3TL201   0.0000
    16 N2          10.0880   -13.0740     4.7650 N.am         1 3TL201   0.0000
    17 C10          9.4370   -14.1970     4.0920 C.3          1 3TL201   0.0000
    18 C11          9.3530   -13.9660     2.5980 C.2          1 3TL201   0.0000
    19 O2           8.6460   -13.0660     2.1440 O.2          1 3TL201   0.0000
    20 C12          8.0340   -14.4670     4.6410 C.3          1 3TL201   0.0000
    21 CG2          7.9460   -14.4570     6.1540 C.3          1 3TL201   0.0000
    22 CG1          7.4900   -15.7850     4.1160 C.3          1 3TL201   0.0000
    23 C2           9.7520   -16.0350    -0.2850 C.3          1 3TL201   0.0000
    24 O1          10.6130   -17.0820     0.1650 O.3          1 3TL201   0.0000
    25 C1          10.1660   -14.7070     0.3810 C.3          1 3TL201   0.0000
    26 N1          10.0830   -14.7970     1.8350 N.am         1 3TL201   0.0000
    27 C3          11.5680   -14.2900    -0.0770 C.3          1 3TL201   0.0000
    28 C4          11.8510   -12.8270     0.2040 C.ar         1 3TL201   0.0000
    29 C5          12.6200   -12.4840     1.3190 C.ar         1 3TL201   0.0000
    30 C9          11.3620   -11.8130    -0.6320 C.ar         1 3TL201   0.0000
    31 C6          12.8930   -11.1390     1.6010 C.ar         1 3TL201   0.0000
    32 C8          11.6280   -10.4780    -0.3490 C.ar         1 3TL201   0.0000
    33 C7          12.3920   -10.1390     0.7670 C.ar         1 3TL201   0.0000
    34 N51          7.0460   -15.7940    -2.1580 N.am         1 3TL201   0.0000
    35 C51          7.2370   -15.5780    -0.7300 C.3          1 3TL201   0.0000
    36 C52          8.2840   -16.4790    -0.0670 C.3          1 3TL201   0.0000
    37 O51          8.0430   -17.7930    -0.5480 O.3          1 3TL201   0.0000
    38 C53          5.9540   -15.6670     0.0800 C.3          1 3TL201   0.0000
    39 C54          4.7420   -16.2480    -0.5970 C.ar         1 3TL201   0.0000
    40 C55          3.9520   -15.4540    -1.4460 C.ar         1 3TL201   0.0000
    41 C59          4.3660   -17.5670    -0.3230 C.ar         1 3TL201   0.0000
    42 C56          2.8040   -15.9920    -2.0370 C.ar         1 3TL201   0.0000
    43 C58          3.2200   -18.1050    -0.9200 C.ar         1 3TL201   0.0000
    44 C57          2.4430   -17.3170    -1.7700 C.ar         1 3TL201   0.0000
    45 N52          6.4570   -15.6920    -4.9600 N.am         1 3TL201   0.0000
    46 C60          7.8020   -15.5230    -4.4430 C.3          1 3TL201   0.0000
    47 C61          7.6390   -14.9780    -3.0440 C.2          1 3TL201   0.0000
    48 O52          8.0020   -13.8420    -2.7430 O.2          1 3TL201   0.0000
    49 C62          8.6010   -14.5880    -5.3730 C.3          1 3TL201   0.0000
    50 CG6          8.4020   -14.9070    -6.8500 C.3          1 3TL201   0.0000
    51 CG5         10.0940   -14.5650    -5.1150 C.3          1 3TL201   0.0000
    52 N54          4.3500   -16.8080    -7.1670 N.am         1 3TL201   0.0000
    53 C68          4.4850   -16.7530    -5.7320 C.3          1 3TL201   0.0000
    54 C69          5.9320   -16.8480    -5.3630 C.2          1 3TL201   0.0000
    55 O54          6.5420   -17.9050    -5.4650 O.2          1 3TL201   0.0000
    56 C70          3.6390   -17.8460    -5.0960 C.3          1 3TL201   0.0000
    57 C81          3.8350   -15.7550    -7.7810 C.2          1 3TL201   0.0000
    58 O58          3.7260   -14.6590    -7.2290 O.2          1 3TL201   0.0000
    59 O59          3.3830   -15.9650    -9.1460 O.3          1 3TL201   0.0000
    60 CA5          3.2010   -14.8750   -10.0620 C.3          1 3TL201   0.0000
    61 C50          1.7280   -14.5600   -10.2380 C.ar         1 3TL201   0.0000
    62 C63          1.3440   -13.3330   -10.7710 C.ar         1 3TL201   0.0000
    63 C64         -0.0040   -13.0180   -10.9380 C.ar         1 3TL201   0.0000
    64 C65         -0.9860   -13.9410   -10.5690 C.ar         1 3TL201   0.0000
    65 C66         -0.5970   -15.1660   -10.0390 C.ar         1 3TL201   0.0000
    66 C67          0.7550   -15.4790    -9.8740 C.ar         1 3TL201   0.0000
    67 HA1         12.6515   -10.3053    11.3310 H            1 3TL201   0.0000
    68 HA2         11.1256   -10.0787    10.7951 H            1 3TL201   0.0000
    69 H3          10.9625    -7.8056    10.2353 H            1 3TL201   0.0000
    70 H4          11.6363    -5.9213     8.9357 H            1 3TL201   0.0000
    71 H5          13.6538    -5.9903     7.6271 H            1 3TL201   0.0000
    72 H6          14.9587    -8.0174     7.6181 H            1 3TL201   0.0000
    73 H7          14.2682    -9.9179     8.9081 H            1 3TL201   0.0000
    74 H8          13.0066   -12.8076     7.6776 H            1 3TL201   0.0000
    75 H9          11.0468   -11.2898     6.1312 H            1 3TL201   0.0000
    76 H10         12.5527   -11.3053     4.2920 H            1 3TL201   0.0000
    77 H11         13.2415   -10.5889     5.5877 H            1 3TL201   0.0000
    78 H12         13.6432   -12.1216     5.1926 H            1 3TL201   0.0000
    79 H13          9.6675   -12.1688     4.7037 H            1 3TL201   0.0000
    80 H14          9.9921   -15.0141     4.2475 H            1 3TL201   0.0000
    81 H15          7.4358   -13.7408     4.3022 H            1 3TL201   0.0000
    82 HG21         7.0037   -14.6400     6.4343 H            1 3TL201   0.0000
    83 HG22         8.5479   -15.1628     6.5276 H            1 3TL201   0.0000
    84 HG23         8.2284   -13.5616     6.4984 H            1 3TL201   0.0000
    85 HG11         6.5745   -15.9394     4.4875 H            1 3TL201   0.0000
    86 HG12         7.4435   -15.7524     3.1176 H            1 3TL201   0.0000
    87 HG13         8.0940   -16.5307     4.3974 H            1 3TL201   0.0000
    88 H22          9.8920   -15.9335    -1.2699 H            1 3TL201   0.0000
    89 H23         11.0883   -17.4825    -0.6184 H            1 3TL201   0.0000
    90 H24          9.5239   -14.0014     0.0812 H            1 3TL201   0.0000
    91 H25         10.6006   -15.5208     2.2912 H            1 3TL201   0.0000
    92 H26         11.6461   -14.4499    -1.0610 H            1 3TL201   0.0000
    93 H27         12.2435   -14.8472     0.4059 H            1 3TL201   0.0000
    94 H28         12.9768   -13.2010     1.9178 H            1 3TL201   0.0000
    95 H29         10.8185   -12.0516    -1.4368 H            1 3TL201   0.0000
    96 H30         13.4457   -10.8963     2.3983 H            1 3TL201   0.0000
    97 H31         11.2709    -9.7601    -0.9466 H            1 3TL201   0.0000
    98 H32         12.5810    -9.1782     0.9698 H            1 3TL201   0.0000
    99 H33          6.4739   -16.5492    -2.4779 H            1 3TL201   0.0000
   100 H34          7.5688   -14.6400    -0.6293 H            1 3TL201   0.0000
   101 H35          8.1080   -16.4776     0.9174 H            1 3TL201   0.0000
   102 H36          8.2180   -18.4528     0.1828 H            1 3TL201   0.0000
   103 H37          5.7186   -14.7396     0.3706 H            1 3TL201   0.0000
   104 H38          6.1462   -16.2296     0.8841 H            1 3TL201   0.0000
   105 H39          4.2104   -14.5052    -1.6274 H            1 3TL201   0.0000
   106 H40          4.9154   -18.1251     0.2988 H            1 3TL201   0.0000
   107 H41          2.2439   -15.4321    -2.6476 H            1 3TL201   0.0000
   108 H42          2.9584   -19.0528    -0.7376 H            1 3TL201   0.0000
   109 H43          1.6220   -17.7023    -2.1914 H            1 3TL201   0.0000
   110 H44          5.8794   -14.8777    -5.0183 H            1 3TL201   0.0000
   111 H45          8.2547   -16.4137    -4.4006 H            1 3TL201   0.0000
   112 H46          8.2606   -13.6598    -5.2225 H            1 3TL201   0.0000
   113 HG61         8.9411   -14.2724    -7.4037 H            1 3TL201   0.0000
   114 HG62         8.7001   -15.8441    -7.0317 H            1 3TL201   0.0000
   115 HG63         7.4342   -14.8139    -7.0837 H            1 3TL201   0.0000
   116 HG51        10.5337   -13.9375    -5.7576 H            1 3TL201   0.0000
   117 HG52        10.2658   -14.2580    -4.1789 H            1 3TL201   0.0000
   118 HG53        10.4678   -15.4843    -5.2383 H            1 3TL201   0.0000
   119 H53          4.6365   -17.6162    -7.6815 H            1 3TL201   0.0000
   120 H54          4.1398   -15.8682    -5.4190 H            1 3TL201   0.0000
   121 H55          3.7347   -17.8053    -4.1014 H            1 3TL201   0.0000
   122 H56          2.6797   -17.7120    -5.3444 H            1 3TL201   0.0000
   123 H57          3.9467   -18.7391    -5.4242 H            1 3TL201   0.0000
   124 HA51         3.5915   -15.1231   -10.9486 H            1 3TL201   0.0000
   125 HA52         3.6691   -14.0661    -9.7062 H            1 3TL201   0.0000
   126 H60          2.0431   -12.6695   -11.0373 H            1 3TL201   0.0000
   127 H61         -0.2676   -12.1328   -11.3213 H            1 3TL201   0.0000
   128 H62         -1.9552   -13.7234   -10.6845 H            1 3TL201   0.0000
   129 H63         -1.2938   -15.8319    -9.7723 H            1 3TL201   0.0000
   130 H64          1.0207   -16.3649    -9.4938 H            1 3TL201   0.0000
@<TRIPOS>BOND
     1    1    2       2
     2    1    3       1
     3    1   11      am
     4    3    4       1
     5    4    5       1
     6    5    6      ar
     7    5   10      ar
     8    6    7      ar
     9    7    8      ar
    10    8    9      ar
    11    9   10      ar
    12   11   12       1
    13   12   13       1
    14   12   15       1
    15   13   14       2
    16   13   16      am
    17   16   17       1
    18   17   18       1
    19   17   20       1
    20   18   19       2
    21   18   26      am
    22   20   21       1
    23   20   22       1
    24   23   24       1
    25   23   25       1
    26   23   36       1
    27   25   26       1
    28   25   27       1
    29   27   28       1
    30   28   29      ar
    31   28   30      ar
    32   29   31      ar
    33   30   32      ar
    34   31   33      ar
    35   32   33      ar
    36   34   35       1
    37   34   47      am
    38   35   36       1
    39   35   38       1
    40   36   37       1
    41   38   39       1
    42   39   40      ar
    43   39   41      ar
    44   40   42      ar
    45   41   43      ar
    46   42   44      ar
    47   43   44      ar
    48   45   46       1
    49   45   54      am
    50   46   47       1
    51   46   49       1
    52   47   48       2
    53   49   50       1
    54   49   51       1
    55   52   53       1
    56   52   57      am
    57   53   54       1
    58   53   56       1
    59   54   55       2
    60   57   58       2
    61   57   59       1
    62   59   60       1
    63   60   61       1
    64   61   62      ar
    65   61   66      ar
    66   62   63      ar
    67   63   64      ar
    68   64   65      ar
    69   65   66      ar
    70    4   67       1
    71    4   68       1
    72    6   69       1
    73    7   70       1
    74    8   71       1
    75    9   72       1
    76   10   73       1
    77   11   74       1
    78   12   75       1
    79   15   76       1
    80   15   77       1
    81   15   78       1
    82   16   79       1
    83   17   80       1
    84   20   81       1
    85   21   82       1
    86   21   83       1
    87   21   84       1
    88   22   85       1
    89   22   86       1
    90   22   87       1
    91   23   88       1
    92   24   89       1
    93   25   90       1
    94   26   91       1
    95   27   92       1
    96   27   93       1
    97   29   94       1
    98   30   95       1
    99   31   96       1
   100   32   97       1
   101   33   98       1
   102   34   99       1
   103   35  100       1
   104   36  101       1
   105   37  102       1
   106   38  103       1
   107   38  104       1
   108   40  105       1
   109   41  106       1
   110   42  107       1
   111   43  108       1
   112   44  109       1
   113   45  110       1
   114   46  111       1
   115   49  112       1
   116   50  113       1
   117   50  114       1
   118   50  115       1
   119   51  116       1
   120   51  117       1
   121   51  118       1
   122   52  119       1
   123   53  120       1
   124   56  121       1
   125   56  122       1
   126   56  123       1
   127   60  124       1
   128   60  125       1
   129   62  126       1
   130   63  127       1
   131   64  128       1
   132   65  129       1
   133   66  130       1
@<TRIPOS>SUBSTRUCTURE
     1 3TL201      1 GROUP             4 A     3TL     0 **** 3TL A 201
