@<TRIPOS>MOLECULE
1pg8_PLP_2_ligand
   26    26     1     0     0
SMALL
NO_CHARGES


@<TRIPOS>ATOM
     1 N1          33.4760    16.8060    39.4820 N.ar         1 PLP1599   1.0000
     2 C2          32.7480    16.0340    40.3410 C.ar         1 PLP1599   0.0000
     3 C2A         33.3240    15.7900    41.7010 C.3          1 PLP1599   0.0000
     4 C3          31.5330    15.4990    39.8950 C.ar         1 PLP1599   0.0000
     5 O3          30.8660    14.7680    40.6330 O.3          1 PLP1599   0.0000
     6 C4          31.0900    15.7790    38.6020 C.ar         1 PLP1599   0.0000
     7 C4A         29.7810    15.2490    38.1000 C.3          1 PLP1599   0.0000
     8 C5          31.8350    16.5820    37.7430 C.ar         1 PLP1599   0.0000
     9 C6          33.0120    17.1070    38.1960 C.ar         1 PLP1599   0.0000
    10 C5A         31.3500    16.9070    36.3680 C.3          1 PLP1599   0.0000
    11 O4P         30.2920    17.9100    36.3310 O.3          1 PLP1599   0.0000
    12 P           29.1500    17.9310    35.2070 P.3          1 PLP1599   0.0000
    13 O1P         28.2380    18.9710    35.7290 O.co2        1 PLP1599   0.0000
    14 O2P         28.6490    16.5320    35.2330 O.co2        1 PLP1599  -1.0000
    15 O3P         29.7700    18.2100    33.8930 O.co2        1 PLP1599  -1.0000
    16 H2A1        32.6993    15.2150    42.2293 H            1 PLP1599   0.0000
    17 H2A2        34.2065    15.3284    41.6113 H            1 PLP1599   0.0000
    18 H2A3        33.4509    16.6636    42.1709 H            1 PLP1599   0.0000
    19 H4          31.1926    14.5554    41.5539 H            1 PLP1599   0.0000
    20 H4A1        29.6372    15.5534    37.1584 H            1 PLP1599   0.0000
    21 H4A2        29.7929    14.2495    38.1291 H            1 PLP1599   0.0000
    22 H4A3        29.0396    15.5905    38.6776 H            1 PLP1599   0.0000
    23 H8          33.5462    17.7109    37.6045 H            1 PLP1599   0.0000
    24 H5A1        31.0014    16.0674    35.9514 H            1 PLP1599   0.0000
    25 H5A2        32.1241    17.2474    35.8343 H            1 PLP1599   0.0000
    26 H11         34.3612    17.1647    39.7783 H            1 PLP1599   0.0000
@<TRIPOS>BOND
     1    1    2      ar
     2    1    9      ar
     3    2    3       1
     4    2    4      ar
     5    4    5       1
     6    4    6      ar
     7    6    7       1
     8    6    8      ar
     9    8    9      ar
    10    8   10       1
    11   10   11       1
    12   11   12       1
    13   12   13      ar
    14   12   14      ar
    15   12   15      ar
    16    3   16       1
    17    3   17       1
    18    3   18       1
    19    5   19       1
    20    7   20       1
    21    7   21       1
    22    7   22       1
    23    9   23       1
    24   10   24       1
    25   10   25       1
    26    1   26       1
@<TRIPOS>SUBSTRUCTURE
     1 PLP1599     1 GROUP             4 D     PLP     0 **** PLP D1599
