@<TRIPOS>MOLECULE
3zg3_UDD_1_ligand
   53    56     1     0     0
SMALL
NO_CHARGES


@<TRIPOS>ATOM
     1 CAJ         23.3490    11.6870   -18.2500 C.ar         1 UDD491   0.0000
     2 CAL         23.9220    12.9270   -18.5150 C.ar         1 UDD491   0.0000
     3 CAZ         23.2230    13.8710   -19.2600 C.ar         1 UDD491   0.0000
     4 CBF         23.7990    15.1240   -19.5250 C.3          1 UDD491   0.0000
     5 FAB         23.2410    15.6620   -20.5980 F            1 UDD491   0.0000
     6 FAC         23.6060    15.9310   -18.5000 F            1 UDD491   0.0000
     7 FAA         25.1100    14.9950   -19.7240 F            1 UDD491   0.0000
     8 CAM         21.9480    13.5520   -19.7290 C.ar         1 UDD491   0.0000
     9 CAK         21.3740    12.3070   -19.4640 C.ar         1 UDD491   0.0000
    10 CAX         22.0750    11.3660   -18.7130 C.ar         1 UDD491   0.0000
    11 NBE         21.5650    10.1570   -18.4370 N.pl3        1 UDD491   0.0000
    12 CAY         22.4100     9.1310   -18.4870 C.ar         1 UDD491   0.0000
    13 CAI         22.6940     8.4300   -17.3210 C.ar         1 UDD491   0.0000
    14 CAG         23.5640     7.3470   -17.3450 C.ar         1 UDD491   0.0000
    15 CAH         24.1500     6.9590   -18.5440 C.ar         1 UDD491   0.0000
    16 NAV         23.8660     7.6550   -19.7300 N.ar         1 UDD491   0.0000
    17 CAP         22.9860     8.7450   -19.6930 C.ar         1 UDD491   0.0000
    18 CBC         20.1600     9.9000   -18.0540 C.3          1 UDD491   0.0000
    19 CAS         19.4080    11.1440   -17.6560 C.3          1 UDD491   0.0000
    20 CAU         17.9910    10.7420   -17.2080 C.3          1 UDD491   0.0000
    21 CAR         19.4290     9.2440   -19.2010 C.3          1 UDD491   0.0000
    22 CAT         18.1760     8.5910   -18.6590 C.3          1 UDD491   0.0000
    23 NBD         17.6460     9.3120   -17.4740 N.pl3        1 UDD491   0.0000
    24 CBB         16.7880     8.6730   -16.6600 C.ar         1 UDD491   0.0000
    25 NAW         16.3060     9.3020   -15.5780 N.ar         1 UDD491   0.0000
    26 CAQ         15.4040     8.6590   -14.7190 C.ar         1 UDD491   0.0000
    27 CBA         14.9990     7.3560   -14.9840 C.ar         1 UDD491   0.0000
    28 CBG         14.1000     6.7250   -14.1280 C.3          1 UDD491   0.0000
    29 FAE         12.9460     7.3990   -14.1320 F            1 UDD491   0.0000
    30 FAF         13.8860     5.4680   -14.5360 F            1 UDD491   0.0000
    31 FAD         14.5970     6.7120   -12.8880 F            1 UDD491   0.0000
    32 CAN         15.4960     6.7050   -16.1080 C.ar         1 UDD491   0.0000
    33 CAO         16.3890     7.3680   -16.9440 C.ar         1 UDD491   0.0000
    34 HAJ         23.8614    11.0136   -17.7171 H            1 UDD491   0.0000
    35 HAL         24.8362    13.1395   -18.1699 H            1 UDD491   0.0000
    36 HAM         21.4374    14.2256   -20.2633 H            1 UDD491   0.0000
    37 HAK         20.4618    12.0913   -19.8125 H            1 UDD491   0.0000
    38 HAI         22.2693     8.7069   -16.4590 H            1 UDD491   0.0000
    39 HAG         23.7678     6.8484   -16.5025 H            1 UDD491   0.0000
    40 HAH         24.7771     6.1802   -18.5622 H            1 UDD491   0.0000
    41 HAP         22.7724     9.2447   -20.5325 H            1 UDD491   0.0000
    42 HBC         20.1566     9.2694   -17.2779 H            1 UDD491   0.0000
    43 HAS1        19.3503    11.7665   -18.4365 H            1 UDD491   0.0000
    44 HAS2        19.8832    11.5978   -16.9022 H            1 UDD491   0.0000
    45 HAU1        17.3335    11.3185   -17.6931 H            1 UDD491   0.0000
    46 HAU2        17.9152    10.9050   -16.2243 H            1 UDD491   0.0000
    47 HAR1        20.0148     8.5521   -19.6230 H            1 UDD491   0.0000
    48 HAR2        19.1828     9.9330   -19.8826 H            1 UDD491   0.0000
    49 HAT1        18.3892     7.6499   -18.3965 H            1 UDD491   0.0000
    50 HAT2        17.4775     8.5874   -19.3746 H            1 UDD491   0.0000
    51 HAQ         15.0517     9.1380   -13.9150 H            1 UDD491   0.0000
    52 HAN         15.2138     5.7679   -16.3137 H            1 UDD491   0.0000
    53 HAO         16.7472     6.9048   -17.7546 H            1 UDD491   0.0000
@<TRIPOS>BOND
     1    1    2      ar
     2    1   10      ar
     3    2    3      ar
     4    3    4       1
     5    3    8      ar
     6    4    5       1
     7    4    6       1
     8    4    7       1
     9    8    9      ar
    10    9   10      ar
    11   10   11       1
    12   11   12       1
    13   11   18       1
    14   12   13      ar
    15   12   17      ar
    16   13   14      ar
    17   14   15      ar
    18   15   16      ar
    19   16   17      ar
    20   18   19       1
    21   18   21       1
    22   19   20       1
    23   20   23       1
    24   21   22       1
    25   22   23       1
    26   23   24       1
    27   24   25      ar
    28   24   33      ar
    29   25   26      ar
    30   26   27      ar
    31   27   28       1
    32   27   32      ar
    33   28   29       1
    34   28   30       1
    35   28   31       1
    36   32   33      ar
    37    1   34       1
    38    2   35       1
    39    8   36       1
    40    9   37       1
    41   13   38       1
    42   14   39       1
    43   15   40       1
    44   17   41       1
    45   18   42       1
    46   19   43       1
    47   19   44       1
    48   20   45       1
    49   20   46       1
    50   21   47       1
    51   21   48       1
    52   22   49       1
    53   22   50       1
    54   26   51       1
    55   32   52       1
    56   33   53       1
@<TRIPOS>SUBSTRUCTURE
     1 UDD491      1 GROUP             4 A     UDD     0 **** UDD A 491
