@<TRIPOS>MOLECULE
4c5o_FAD_7_ligand
   84    89     1     0     0
SMALL
NO_CHARGES


@<TRIPOS>ATOM
     1 PA         -69.7770    88.2610   -38.8900 P.3          1 FAD1353   0.0000
     2 O1A        -70.7630    89.3040   -38.4190 O.co2        1 FAD1353   0.0000
     3 O2A        -70.3760    87.0130   -39.4880 O.co2        1 FAD1353  -1.0000
     4 O5B        -68.5800    88.6000   -39.9300 O.3          1 FAD1353   0.0000
     5 C5B        -68.5800    89.8330   -40.5730 C.3          1 FAD1353   0.0000
     6 C4B        -68.6300    89.7560   -42.1060 C.3          1 FAD1353   0.0000
     7 O4B        -67.4740    89.1900   -42.7230 O.3          1 FAD1353   0.0000
     8 C3B        -69.8050    88.9970   -42.7040 C.3          1 FAD1353   0.0000
     9 O3B        -70.7070    89.9580   -43.2400 O.3          1 FAD1353   0.0000
    10 C2B        -69.2040    88.1310   -43.7890 C.3          1 FAD1353   0.0000
    11 O2B        -69.9570    88.0670   -44.9930 O.3          1 FAD1353   0.0000
    12 C1B        -67.9030    88.8600   -44.0540 C.3          1 FAD1353   0.0000
    13 N9A        -66.9910    88.0020   -44.8260 N.pl3        1 FAD1353   0.0000
    14 C8A        -66.6380    86.7490   -44.5120 C.2          1 FAD1353   0.0000
    15 N7A        -65.8030    86.2260   -45.4290 N.2          1 FAD1353   0.0000
    16 C5A        -65.6160    87.1510   -46.3230 C.ar         1 FAD1353   0.0000
    17 C6A        -64.8580    87.2120   -47.5180 C.ar         1 FAD1353   0.0000
    18 N6A        -64.1660    86.1600   -47.8440 N.pl3        1 FAD1353   0.0000
    19 N1A        -64.8590    88.3240   -48.2310 N.ar         1 FAD1353   0.0000
    20 C2A        -65.5670    89.3840   -47.8540 C.ar         1 FAD1353   0.0000
    21 N3A        -66.3320    89.3960   -46.7390 N.ar         1 FAD1353   0.0000
    22 C4A        -66.3870    88.3200   -45.9420 C.ar         1 FAD1353   0.0000
    23 N1         -72.6490    87.9360   -29.4430 N.2          1 FAD1353   0.0000
    24 C2         -73.0450    88.7740   -28.4530 C.2          1 FAD1353   0.0000
    25 O2         -72.2610    89.6460   -28.0800 O.2          1 FAD1353   0.0000
    26 N3         -74.2300    88.6840   -27.8420 N.pl3        1 FAD1353   0.0000
    27 C4         -75.1290    87.7790   -28.2350 C.2          1 FAD1353   0.0000
    28 O4         -76.2240    87.7140   -27.6810 O.2          1 FAD1353   0.0000
    29 C4X        -74.8040    86.8280   -29.3290 C.2          1 FAD1353   0.0000
    30 N5         -75.7060    85.9050   -29.7810 N.2          1 FAD1353   0.0000
    31 C5X        -75.3850    85.0820   -30.8010 C.ar         1 FAD1353   0.0000
    32 C6         -76.3350    84.1540   -31.2370 C.ar         1 FAD1353   0.0000
    33 C7         -76.0140    83.2980   -32.3060 C.ar         1 FAD1353   0.0000
    34 C7M        -77.0720    82.3080   -32.7580 C.3          1 FAD1353   0.0000
    35 C8         -74.6590    83.4010   -32.9880 C.ar         1 FAD1353   0.0000
    36 C8M        -74.2660    82.5000   -34.0960 C.3          1 FAD1353   0.0000
    37 C9         -73.7190    84.3100   -32.5450 C.ar         1 FAD1353   0.0000
    38 C9A        -74.0310    85.1830   -31.4660 C.ar         1 FAD1353   0.0000
    39 N10        -73.1120    86.1740   -31.0110 N.pl3        1 FAD1353   0.0000
    40 C10        -73.4690    86.9730   -29.9230 C.2          1 FAD1353   0.0000
    41 C1'        -71.7310    86.2170   -31.5150 C.3          1 FAD1353   0.0000
    42 C2'        -71.0830    87.3250   -32.2430 C.3          1 FAD1353   0.0000
    43 O2'        -71.2480    88.5000   -31.4510 O.3          1 FAD1353   0.0000
    44 C3'        -71.6100    87.2190   -33.6800 C.3          1 FAD1353   0.0000
    45 O3'        -71.1100    85.9470   -34.0510 O.3          1 FAD1353   0.0000
    46 C4'        -71.0970    88.2230   -34.7240 C.3          1 FAD1353   0.0000
    47 O4'        -71.7490    88.0420   -35.9930 O.3          1 FAD1353   0.0000
    48 C5'        -69.5670    88.1020   -34.8870 C.3          1 FAD1353   0.0000
    49 O5'        -69.0690    89.2760   -35.5300 O.3          1 FAD1353   0.0000
    50 P          -68.1160    89.1770   -36.7800 P.3          1 FAD1353   0.0000
    51 O1P        -66.7680    88.6440   -36.4520 O.co2        1 FAD1353   0.0000
    52 O2P        -68.0720    90.5540   -37.4300 O.co2        1 FAD1353  -1.0000
    53 O3P        -68.8000    87.9780   -37.6500 O.3          1 FAD1353   0.0000
    54 H5B1       -67.7466    90.3204   -40.3124 H            1 FAD1353   0.0000
    55 H5B2       -69.3786    90.3475   -40.2606 H            1 FAD1353   0.0000
    56 H4B        -68.6991    90.6970   -42.4374 H            1 FAD1353   0.0000
    57 H3B        -70.2554    88.4354   -42.0099 H            1 FAD1353   0.0000
    58 H5         -70.2426    90.4944   -43.9447 H            1 FAD1353   0.0000
    59 H2B        -69.0237    87.2110   -43.4411 H            1 FAD1353   0.0000
    60 H7         -70.8645    87.6944   -44.7992 H            1 FAD1353   0.0000
    61 H1B        -68.0869    89.6996   -44.5651 H            1 FAD1353   0.0000
    62 H8A        -66.9552    86.2626   -43.6979 H            1 FAD1353   0.0000
    63 H6A1       -63.6172    86.1618   -48.6800 H            1 FAD1353   0.0000
    64 H6A2       -64.1828    85.3494   -47.2587 H            1 FAD1353   0.0000
    65 H2A        -65.5324    90.2081   -48.4193 H            1 FAD1353   0.0000
    66 H13        -74.4451    89.2998   -27.0840 H            1 FAD1353   0.0000
    67 H14        -77.2304    84.0994   -30.7951 H            1 FAD1353   0.0000
    68 H7M1       -76.7170    81.7651   -33.5191 H            1 FAD1353   0.0000
    69 H7M2       -77.3081    81.7023   -31.9981 H            1 FAD1353   0.0000
    70 H7M3       -77.8879    82.8043   -33.0546 H            1 FAD1353   0.0000
    71 H8M1       -73.3428    82.7318   -34.4026 H            1 FAD1353   0.0000
    72 H8M2       -74.2832    81.5524   -33.7771 H            1 FAD1353   0.0000
    73 H8M3       -74.9066    82.6076   -34.8563 H            1 FAD1353   0.0000
    74 H21        -72.8205    84.3546   -32.9818 H            1 FAD1353   0.0000
    75 H1'1       -71.6557    85.4290   -32.1261 H            1 FAD1353   0.0000
    76 H1'2       -71.1583    86.0695   -30.7086 H            1 FAD1353   0.0000
    77 H2'        -70.1037    87.1250   -32.2729 H            1 FAD1353   0.0000
    78 H25        -71.7532    88.2726   -30.6185 H            1 FAD1353   0.0000
    79 H3'        -72.6099    87.2071   -33.6784 H            1 FAD1353   0.0000
    80 H27        -71.3850    85.7417   -34.9903 H            1 FAD1353   0.0000
    81 H4'        -71.3033    89.1452   -34.3967 H            1 FAD1353   0.0000
    82 H29        -71.3938    88.7086   -36.6483 H            1 FAD1353   0.0000
    83 H5'1       -69.3524    87.2993   -35.4434 H            1 FAD1353   0.0000
    84 H5'2       -69.1412    88.0073   -33.9871 H            1 FAD1353   0.0000
@<TRIPOS>BOND
     1    1    2      ar
     2    1    3      ar
     3    1    4       1
     4    1   53       1
     5    4    5       1
     6    5    6       1
     7    6    7       1
     8    6    8       1
     9    7   12       1
    10    8    9       1
    11    8   10       1
    12   10   11       1
    13   10   12       1
    14   12   13       1
    15   13   14       1
    16   13   22       1
    17   14   15       2
    18   15   16       1
    19   16   17      ar
    20   16   22      ar
    21   17   18       1
    22   17   19      ar
    23   19   20      ar
    24   20   21      ar
    25   21   22      ar
    26   23   24       1
    27   23   40       2
    28   24   25       2
    29   24   26       1
    30   26   27       1
    31   27   28       2
    32   27   29       1
    33   29   30       2
    34   29   40       1
    35   30   31       1
    36   31   32      ar
    37   31   38      ar
    38   32   33      ar
    39   33   34       1
    40   33   35      ar
    41   35   36       1
    42   35   37      ar
    43   37   38      ar
    44   38   39       1
    45   39   40       1
    46   39   41       1
    47   41   42       1
    48   42   43       1
    49   42   44       1
    50   44   45       1
    51   44   46       1
    52   46   47       1
    53   46   48       1
    54   48   49       1
    55   49   50       1
    56   50   51      ar
    57   50   52      ar
    58   50   53       1
    59   48   84       1
    60    5   54       1
    61    5   55       1
    62    6   56       1
    63    8   57       1
    64    9   58       1
    65   10   59       1
    66   11   60       1
    67   12   61       1
    68   14   62       1
    69   18   63       1
    70   18   64       1
    71   20   65       1
    72   26   66       1
    73   32   67       1
    74   34   68       1
    75   34   69       1
    76   34   70       1
    77   36   71       1
    78   36   72       1
    79   36   73       1
    80   37   74       1
    81   41   75       1
    82   41   76       1
    83   42   77       1
    84   43   78       1
    85   44   79       1
    86   45   80       1
    87   46   81       1
    88   47   82       1
    89   48   83       1
@<TRIPOS>SUBSTRUCTURE
     1 FAD1353     1 GROUP             4 G     FAD     0 **** FAD G1353
