@<TRIPOS>MOLECULE
4ymk_ST9_1_ligand
  133   135     1     0     0
SMALL
NO_CHARGES


@<TRIPOS>ATOM
     1 C1         -28.5800   -22.3920    15.2320 C.2          1 ST9403   0.0000
     2 C2         -27.6700   -22.3680    14.0300 C.3          1 ST9403   0.0000
     3 O2         -28.9920   -21.3550    15.7080 O.2          1 ST9403   0.0000
     4 C3         -28.1440   -21.3210    13.0240 C.3          1 ST9403   0.0000
     5 C4         -27.0850   -20.2320    12.8590 C.3          1 ST9403   0.0000
     6 C5         -26.1580   -20.5710    11.6880 C.3          1 ST9403   0.0000
     7 C6         -26.4440   -19.6560    10.4950 C.3          1 ST9403   0.0000
     8 C7         -25.2520   -18.7310    10.2390 C.3          1 ST9403   0.0000
     9 C8         -24.9750   -18.6530     8.7330 C.3          1 ST9403   0.0000
    10 C9         -24.5500   -17.2310     8.3570 C.3          1 ST9403   0.0000
    11 C10        -23.1220   -17.2250     7.8060 C.3          1 ST9403   0.0000
    12 C11        -22.1160   -17.5560     8.9120 C.3          1 ST9403   0.0000
    13 C12        -22.1010   -16.4520     9.9740 C.3          1 ST9403   0.0000
    14 C13        -21.3100   -16.9260    11.1980 C.3          1 ST9403   0.0000
    15 C14        -21.3570   -15.8620    12.2970 C.3          1 ST9403   0.0000
    16 C15        -20.8400   -16.4540    13.6120 C.3          1 ST9403   0.0000
    17 C16        -20.8390   -15.3800    14.7020 C.3          1 ST9403   0.0000
    18 C17        -20.3680   -15.9860    16.0260 C.3          1 ST9403   0.0000
    19 C18        -20.3990   -14.9160    17.1190 C.3          1 ST9403   0.0000
    20 N1A        -30.1560   -30.4120     3.3260 N.ar         1 ST9403   0.0000
    21 O1A        -33.9900   -30.4760    10.7590 O.co2        1 ST9403   0.0000
    22 P1A        -35.0180   -31.4760    10.3880 P.3          1 ST9403   0.0000
    23 C1B        -33.4300   -33.4710     5.9050 C.3          1 ST9403   0.0000
    24 S1P        -29.0250   -23.8970    15.9190 S.3          1 ST9403   0.0000
    25 C2A        -30.5340   -31.6460     3.0560 C.ar         1 ST9403   0.0000
    26 O2A        -35.4770   -32.3150    11.6830 O.co2        1 ST9403  -1.0000
    27 P2A        -37.6960   -30.2350    10.3690 P.3          1 ST9403   0.0000
    28 C2B        -32.4370   -34.5550     6.4040 C.3          1 ST9403   0.0000
    29 O2B        -32.6950   -35.8010     5.7580 O.3          1 ST9403   0.0000
    30 C2P        -29.3210   -23.4120    17.6340 C.3          1 ST9403   0.0000
    31 N3A        -31.3830   -32.3090     3.8090 N.ar         1 ST9403   0.0000
    32 O3A        -36.2880   -30.7160     9.7610 O.3          1 ST9403   0.0000
    33 C3B        -32.7750   -34.6390     7.9080 C.3          1 ST9403   0.0000
    34 O3B        -32.4350   -35.9230     8.4380 O.3          1 ST9403   0.0000
    35 P3B        -31.1900   -36.1590     9.4290 P.3          1 ST9403   0.0000
    36 C3P        -29.5010   -24.6760    18.4780 C.3          1 ST9403   0.0000
    37 C4A        -31.8990   -31.7450     4.8920 C.ar         1 ST9403   0.0000
    38 O4A        -38.4930   -31.5060    10.9440 O.co2        1 ST9403   0.0000
    39 C4B        -34.2970   -34.4280     7.8750 C.3          1 ST9403   0.0000
    40 O4B        -34.5430   -33.4730     6.8310 O.3          1 ST9403   0.0000
    41 N4P        -30.1210   -25.7150    17.6510 N.am         1 ST9403   0.0000
    42 C5A        -31.5300   -30.4320     5.2290 C.ar         1 ST9403   0.0000
    43 O5A        -38.4930   -29.5650     9.3110 O.co2        1 ST9403  -1.0000
    44 C5B        -34.7780   -33.8620     9.2110 C.3          1 ST9403   0.0000
    45 O5B        -34.4240   -32.4810     9.2800 O.3          1 ST9403   0.0000
    46 C5P        -31.4670   -25.7840    17.5560 C.2          1 ST9403   0.0000
    47 O5P        -32.1550   -24.9910    18.1610 O.2          1 ST9403   0.0000
    48 C6A        -30.6190   -29.7650     4.3900 C.ar         1 ST9403   0.0000
    49 N6A        -30.2140   -28.4700     4.6640 N.pl3        1 ST9403   0.0000
    50 O6A        -37.4110   -29.2030    11.5690 O.3          1 ST9403   0.0000
    51 C6P        -32.1290   -26.8360    16.7010 C.3          1 ST9403   0.0000
    52 N7A        -32.1970   -30.1120     6.3660 N.2          1 ST9403   0.0000
    53 O7A        -30.0680   -35.0310     9.1750 O.co2        1 ST9403   0.0000
    54 C7P        -33.4910   -26.2980    16.2550 C.3          1 ST9403   0.0000
    55 C8A        -32.9330   -31.1240     6.7340 C.2          1 ST9403   0.0000
    56 O8A        -31.7040   -36.0620    10.9540 O.co2        1 ST9403  -1.0000
    57 N8P        -33.8280   -26.7600    14.9020 N.am         1 ST9403   0.0000
    58 N9A        -32.7810   -32.1560     5.8550 N.pl3        1 ST9403   0.0000
    59 O9A        -30.6210   -37.5020     9.1780 O.co2        1 ST9403  -1.0000
    60 C9P        -34.7480   -27.7350    14.7410 C.2          1 ST9403   0.0000
    61 O9P        -35.2630   -28.2220    15.7250 O.2          1 ST9403   0.0000
    62 CAP        -35.1260   -28.2330    13.3620 C.3          1 ST9403   0.0000
    63 OAP        -33.9940   -28.1480    12.4940 O.3          1 ST9403   0.0000
    64 CBP        -36.2900   -27.4320    12.7590 C.3          1 ST9403   0.0000
    65 CCP        -36.6310   -28.0200    11.3900 C.3          1 ST9403   0.0000
    66 CDP        -35.9120   -25.9590    12.5930 C.3          1 ST9403   0.0000
    67 CEP        -37.5240   -27.5380    13.6540 C.3          1 ST9403   0.0000
    68 H1         -27.6746   -23.2685    13.5952 H            1 ST9403   0.0000
    69 H2         -26.7408   -22.1449    14.3246 H            1 ST9403   0.0000
    70 H3         -28.9939   -20.9085    13.3519 H            1 ST9403   0.0000
    71 H4         -28.3061   -21.7609    12.1407 H            1 ST9403   0.0000
    72 H5         -26.5460   -20.1651    13.6987 H            1 ST9403   0.0000
    73 H6         -27.5355   -19.3570    12.6814 H            1 ST9403   0.0000
    74 H7         -26.3057   -21.5219    11.4161 H            1 ST9403   0.0000
    75 H8         -25.2077   -20.4501    11.9750 H            1 ST9403   0.0000
    76 H9         -27.2546   -19.1037    10.6895 H            1 ST9403   0.0000
    77 H10        -26.6086   -20.2149     9.6823 H            1 ST9403   0.0000
    78 H11        -24.4451   -19.0907    10.7075 H            1 ST9403   0.0000
    79 H12        -25.4596   -17.8167    10.5869 H            1 ST9403   0.0000
    80 H13        -25.8045   -18.8956     8.2299 H            1 ST9403   0.0000
    81 H14        -24.2429   -19.2918     8.4966 H            1 ST9403   0.0000
    82 H15        -24.5914   -16.6497     9.1696 H            1 ST9403   0.0000
    83 H16        -25.1728   -16.8750     7.6603 H            1 ST9403   0.0000
    84 H17        -22.9166   -16.3193     7.4353 H            1 ST9403   0.0000
    85 H18        -23.0474   -17.9075     7.0789 H            1 ST9403   0.0000
    86 H19        -21.2033   -17.6399     8.5120 H            1 ST9403   0.0000
    87 H20        -22.3726   -18.4219     9.3415 H            1 ST9403   0.0000
    88 H21        -23.0395   -16.2394    10.2462 H            1 ST9403   0.0000
    89 H22        -21.6699   -15.6327     9.5961 H            1 ST9403   0.0000
    90 H23        -20.3590   -17.0884    10.9349 H            1 ST9403   0.0000
    91 H24        -21.7103   -17.7753    11.5422 H            1 ST9403   0.0000
    92 H25        -22.3000   -15.5526    12.4199 H            1 ST9403   0.0000
    93 H26        -20.7834   -15.0865    12.0335 H            1 ST9403   0.0000
    94 H27        -19.9085   -16.7928    13.4795 H            1 ST9403   0.0000
    95 H28        -21.4329   -17.2093    13.8913 H            1 ST9403   0.0000
    96 H29        -21.7648   -15.0187    14.8129 H            1 ST9403   0.0000
    97 H30        -20.2215   -14.6392    14.4376 H            1 ST9403   0.0000
    98 H31        -19.4343   -16.3286    15.9219 H            1 ST9403   0.0000
    99 H32        -20.9733   -16.7401    16.2810 H            1 ST9403   0.0000
   100 H33        -20.0910   -15.3135    17.9834 H            1 ST9403   0.0000
   101 H34        -19.7936   -14.1618    16.8645 H            1 ST9403   0.0000
   102 H35        -21.3326   -14.5733    17.2236 H            1 ST9403   0.0000
   103 H1B        -33.7570   -33.7150     4.9920 H            1 ST9403   0.0000
   104 H2A        -30.1594   -32.0958     2.2452 H            1 ST9403   0.0000
   105 H2B        -31.4898   -34.2667     6.2639 H            1 ST9403   0.0000
   106 H39        -32.0485   -36.4883     6.0891 H            1 ST9403   0.0000
   107 H2P1       -30.1474   -22.8515    17.6872 H            1 ST9403   0.0000
   108 H2P2       -28.5404   -22.8882    17.9750 H            1 ST9403   0.0000
   109 H3B        -32.3223   -33.9083     8.4190 H            1 ST9403   0.0000
   110 H3P1       -30.0890   -24.4754    19.2616 H            1 ST9403   0.0000
   111 H3P2       -28.6097   -24.9927    18.8025 H            1 ST9403   0.0000
   112 H4B        -34.7631   -35.2898     7.6746 H            1 ST9403   0.0000
   113 H4P        -29.5494   -26.3711    17.1583 H            1 ST9403   0.0000
   114 H5B1       -34.3431   -34.3583     9.9623 H            1 ST9403   0.0000
   115 H5B2       -35.7711   -33.9581     9.2787 H            1 ST9403   0.0000
   116 H6A1       -30.5702   -27.9943     5.4683 H            1 ST9403   0.0000
   117 H6A2       -29.5652   -28.0102     4.0577 H            1 ST9403   0.0000
   118 H6P1       -32.2529   -27.6749    17.2310 H            1 ST9403   0.0000
   119 H6P2       -31.5617   -27.0283    15.9002 H            1 ST9403   0.0000
   120 H7P1       -33.4647   -25.2984    16.2611 H            1 ST9403   0.0000
   121 H7P2       -34.1923   -26.6169    16.8926 H            1 ST9403   0.0000
   122 H8A        -33.5222   -31.1409     7.5418 H            1 ST9403   0.0000
   123 H8P        -33.3790   -26.3551    14.1055 H            1 ST9403   0.0000
   124 HAP        -35.4018   -29.1916    13.4336 H            1 ST9403   0.0000
   125 H58        -34.0499   -28.8676    11.8018 H            1 ST9403   0.0000
   126 HCP1       -37.1530   -27.3521    10.8596 H            1 ST9403   0.0000
   127 HCP2       -35.7872   -28.2460    10.9033 H            1 ST9403   0.0000
   128 HDP1       -36.6837   -25.4591    12.1997 H            1 ST9403   0.0000
   129 HDP2       -35.6836   -25.5708    13.4858 H            1 ST9403   0.0000
   130 HDP3       -35.1217   -25.8842    11.9849 H            1 ST9403   0.0000
   131 HEP1       -38.2739   -27.0131    13.2513 H            1 ST9403   0.0000
   132 HEP2       -37.7949   -28.4971    13.7361 H            1 ST9403   0.0000
   133 HEP3       -37.3108   -27.1731    14.5603 H            1 ST9403   0.0000
@<TRIPOS>BOND
     1    1    2       1
     2    1    3       2
     3    1   24       1
     4    2    4       1
     5    4    5       1
     6    5    6       1
     7    6    7       1
     8    7    8       1
     9    8    9       1
    10    9   10       1
    11   10   11       1
    12   11   12       1
    13   12   13       1
    14   13   14       1
    15   14   15       1
    16   15   16       1
    17   16   17       1
    18   17   18       1
    19   18   19       1
    20   20   25      ar
    21   20   48      ar
    22   21   22      ar
    23   22   26      ar
    24   22   32       1
    25   22   45       1
    26   23   28       1
    27   23   40       1
    28   23   58       1
    29   24   30       1
    30   25   31      ar
    31   27   32       1
    32   27   38      ar
    33   27   43      ar
    34   27   50       1
    35   28   29       1
    36   28   33       1
    37   30   36       1
    38   31   37      ar
    39   33   34       1
    40   33   39       1
    41   34   35       1
    42   35   53      ar
    43   35   56      ar
    44   35   59      ar
    45   36   41       1
    46   37   42      ar
    47   37   58       1
    48   39   40       1
    49   39   44       1
    50   41   46      am
    51   42   48      ar
    52   42   52       1
    53   44   45       1
    54   46   47       2
    55   46   51       1
    56   48   49       1
    57   50   65       1
    58   51   54       1
    59   52   55       2
    60   54   57       1
    61   55   58       1
    62   57   60      am
    63   60   61       2
    64   60   62       1
    65   62   63       1
    66   62   64       1
    67   64   65       1
    68   64   66       1
    69   64   67       1
    70    2   68       1
    71    2   69       1
    72    4   70       1
    73    4   71       1
    74    5   72       1
    75    5   73       1
    76    6   74       1
    77    6   75       1
    78    7   76       1
    79    7   77       1
    80    8   78       1
    81    8   79       1
    82    9   80       1
    83    9   81       1
    84   10   82       1
    85   10   83       1
    86   11   84       1
    87   11   85       1
    88   12   86       1
    89   12   87       1
    90   13   88       1
    91   13   89       1
    92   14   90       1
    93   14   91       1
    94   15   92       1
    95   15   93       1
    96   16   94       1
    97   16   95       1
    98   17   96       1
    99   17   97       1
   100   18   98       1
   101   18   99       1
   102   19  100       1
   103   19  101       1
   104   19  102       1
   105   67  133       1
   106   23  103       1
   107   25  104       1
   108   28  105       1
   109   29  106       1
   110   30  107       1
   111   30  108       1
   112   33  109       1
   113   36  110       1
   114   36  111       1
   115   67  132       1
   116   39  112       1
   117   41  113       1
   118   44  114       1
   119   44  115       1
   120   49  116       1
   121   49  117       1
   122   51  118       1
   123   51  119       1
   124   67  131       1
   125   54  120       1
   126   54  121       1
   127   55  122       1
   128   66  130       1
   129   57  123       1
   130   62  124       1
   131   63  125       1
   132   65  126       1
   133   65  127       1
   134   66  128       1
   135   66  129       1
@<TRIPOS>SUBSTRUCTURE
     1 ST9403      1 GROUP             4 A     ST9     0 **** ST9 A 403
