@<TRIPOS>MOLECULE
2dpm_SAM_1_ligand
   50    52     1     0     0
SMALL
NO_CHARGES


@<TRIPOS>ATOM
     1 N           19.7690    29.6600    59.1930 N.4          1 SAM300   1.0000
     2 CA          19.1920    28.7030    58.2990 C.3          1 SAM300   0.0000
     3 C           19.2140    27.4800    59.2220 C.2          1 SAM300   0.0000
     4 O           19.0200    27.5980    60.5030 O.co2        1 SAM300   0.0000
     5 OXT         18.7290    26.3710    58.7470 O.co2        1 SAM300  -1.0000
     6 CB          20.1690    28.5290    57.1570 C.3          1 SAM300   0.0000
     7 CG          19.9600    29.4580    55.9600 C.3          1 SAM300   0.0000
     8 SD          21.2010    29.1440    54.6740 S.3          1 SAM300   1.0000
     9 CE          22.7820    29.9910    54.8290 C.3          1 SAM300   0.0000
    10 C5'         20.9600    30.4790    53.4820 C.3          1 SAM300   0.0000
    11 C4'         19.6660    30.4080    52.7930 C.3          1 SAM300   0.0000
    12 O4'         19.6030    31.5260    51.9190 O.3          1 SAM300   0.0000
    13 C3'         19.4570    29.1430    51.9210 C.3          1 SAM300   0.0000
    14 O3'         18.2850    28.4380    52.4150 O.3          1 SAM300   0.0000
    15 C2'         19.2230    29.8000    50.5030 C.3          1 SAM300   0.0000
    16 O2'         18.2460    29.0460    49.7000 O.3          1 SAM300   0.0000
    17 C1'         18.6630    31.2080    50.8670 C.3          1 SAM300   0.0000
    18 N9          18.8360    32.2850    49.8320 N.pl3        1 SAM300   0.0000
    19 C8          19.8280    32.3370    48.8520 C.2          1 SAM300   0.0000
    20 N7          19.7770    33.3980    48.0750 N.2          1 SAM300   0.0000
    21 C5          18.6550    34.1530    48.5630 C.ar         1 SAM300   0.0000
    22 C6          18.0690    35.4280    48.1490 C.ar         1 SAM300   0.0000
    23 N6          18.5540    36.1850    47.1160 N.pl3        1 SAM300   0.0000
    24 N1          16.9930    35.8350    48.8600 N.ar         1 SAM300   0.0000
    25 C2          16.5060    35.0970    49.8840 C.ar         1 SAM300   0.0000
    26 N3          16.9420    33.9090    50.3780 N.ar         1 SAM300   0.0000
    27 C4          18.0590    33.4750    49.6470 C.ar         1 SAM300   0.0000
    28 H1          20.6120    30.0220    58.7950 H            1 SAM300   0.0000
    29 H2          19.1228    30.4084    59.3425 H            1 SAM300   0.0000
    30 HA          18.2720    28.9515    57.9960 H            1 SAM300   0.0000
    31 HB1         20.0964    27.5864    56.8311 H            1 SAM300   0.0000
    32 HB2         21.0898    28.6886    57.5130 H            1 SAM300   0.0000
    33 HG1         20.0370    30.4073    56.2647 H            1 SAM300   0.0000
    34 HG2         19.0481    29.3028    55.5801 H            1 SAM300   0.0000
    35 HE1         23.3734    29.7356    54.0641 H            1 SAM300   0.0000
    36 HE2         22.6328    30.9798    54.8193 H            1 SAM300   0.0000
    37 HE3         23.2180    29.7281    55.6897 H            1 SAM300   0.0000
    38 H5'1        21.6880    30.4305    52.7981 H            1 SAM300   0.0000
    39 H5'2        21.0153    31.3521    53.9663 H            1 SAM300   0.0000
    40 H4'         18.9289    30.4718    53.4657 H            1 SAM300   0.0000
    41 H3'         20.2670    28.5565    51.9248 H            1 SAM300   0.0000
    42 H15         17.6424    29.0950    52.8092 H            1 SAM300   0.0000
    43 H2'         20.0889    29.8851    50.0102 H            1 SAM300   0.0000
    44 H17         17.3269    29.3987    49.8759 H            1 SAM300   0.0000
    45 H1'         17.7233    31.1614    51.2057 H            1 SAM300   0.0000
    46 H19         20.5223    31.6248    48.7484 H            1 SAM300   0.0000
    47 H20         18.1109    37.0495    46.8786 H            1 SAM300   0.0000
    48 H21         19.3513    35.8733    46.5991 H            1 SAM300   0.0000
    49 H22         15.7072    35.4830    50.3454 H            1 SAM300   0.0000
    50 H23         19.9754    29.2184    60.0661 H            1 SAM300   0.0000
@<TRIPOS>BOND
     1    1    2       1
     2    2    3       1
     3    2    6       1
     4    3    4      ar
     5    3    5      ar
     6    6    7       1
     7    7    8       1
     8    8    9       1
     9    8   10       1
    10   10   11       1
    11   11   12       1
    12   11   13       1
    13   12   17       1
    14   13   14       1
    15   13   15       1
    16   15   16       1
    17   15   17       1
    18   17   18       1
    19   18   19       1
    20   18   27       1
    21   19   20       2
    22   20   21       1
    23   21   22      ar
    24   21   27      ar
    25   22   23       1
    26   22   24      ar
    27   24   25      ar
    28   25   26      ar
    29   26   27      ar
    30    1   28       1
    31    1   29       1
    32    2   30       1
    33    1   50       1
    34    6   31       1
    35    6   32       1
    36    7   33       1
    37    7   34       1
    38    9   35       1
    39    9   36       1
    40    9   37       1
    41   10   38       1
    42   10   39       1
    43   11   40       1
    44   13   41       1
    45   14   42       1
    46   15   43       1
    47   16   44       1
    48   17   45       1
    49   19   46       1
    50   23   47       1
    51   23   48       1
    52   25   49       1
@<TRIPOS>SUBSTRUCTURE
     1 SAM300      1 GROUP             4 A     SAM     0 **** SAM A 300
