@<TRIPOS>MOLECULE
3ex8_AIF_1_ligand
   36    36     1     0     0
SMALL
NO_CHARGES


@<TRIPOS>ATOM
     1 C4          44.6430    51.7400    74.8720 C.2          1 AIF381   0.0000
     2 C5          43.8970    52.9040    74.8200 C.2          1 AIF381   0.0000
     3 C6          44.5030    54.1120    75.1500 C.2          1 AIF381   0.0000
     4 N1          45.8500    54.1860    75.5100 N.pl3        1 AIF381   0.0000
     5 N3          45.9930    51.7750    75.2410 N.pl3        1 AIF381   0.0000
     6 N5          42.5970    52.8410    74.5160 N.pl3        1 AIF381   0.0000
     7 O2          47.7490    53.0270    75.9590 O.2          1 AIF381   0.0000
     8 O4          44.1160    50.6510    74.6110 O.2          1 AIF381   0.0000
     9 O1P         45.2130    56.7870    82.7200 O.co2        1 AIF381   0.0000
    10 P           44.3470    58.0690    82.2770 P.3          1 AIF381   0.0000
    11 O3P         45.0180    59.3200    83.0410 O.co2        1 AIF381  -1.0000
    12 O2P         42.9170    57.9260    82.6300 O.co2        1 AIF381  -1.0000
    13 O5'         44.5560    58.2330    80.6840 O.3          1 AIF381   0.0000
    14 C5'         43.5390    57.8450    79.7500 C.3          1 AIF381   0.0000
    15 C4'         44.0110    57.9890    78.2990 C.3          1 AIF381   0.0000
    16 O4'         45.1540    57.1500    78.1080 O.3          1 AIF381   0.0000
    17 C3'         42.9150    57.6660    77.2720 C.3          1 AIF381   0.0000
    18 O3'         41.9210    58.6960    77.2670 O.3          1 AIF381   0.0000
    19 C2'         43.4640    57.5850    75.8440 C.3          1 AIF381   0.0000
    20 O2'         42.3980    57.4760    74.8990 O.3          1 AIF381   0.0000
    21 C1'         44.3490    56.3480    75.6520 C.2          1 AIF381   0.0000
    22 N1'         43.7720    55.2170    75.3130 N.2          1 AIF381   0.0000
    23 C2          46.5990    53.0000    75.5610 C.2          1 AIF381   0.0000
    24 H1          46.2725    55.0660    75.7271 H            1 AIF381   0.0000
    25 H2          46.5246    50.9288    75.2765 H            1 AIF381   0.0000
    26 H3          42.0516    53.6782    74.4766 H            1 AIF381   0.0000
    27 H4          42.1698    51.9566    74.3280 H            1 AIF381   0.0000
    28 H5'1        42.7356    58.4243    79.8877 H            1 AIF381   0.0000
    29 H5'2        43.2939    56.8900    79.9170 H            1 AIF381   0.0000
    30 H4'         44.2963    58.9372    78.1591 H            1 AIF381   0.0000
    31 H8          45.9362    57.7096    77.8341 H            1 AIF381   0.0000
    32 H3'         42.4860    56.7947    77.5104 H            1 AIF381   0.0000
    33 H10         41.0359    58.3039    77.0164 H            1 AIF381   0.0000
    34 H2'         43.9977    58.4075    75.6475 H            1 AIF381   0.0000
    35 H12         41.6248    57.0033    75.3218 H            1 AIF381   0.0000
    36 H1'         45.3392    56.4004    75.7813 H            1 AIF381   0.0000
@<TRIPOS>BOND
     1    1    2       1
     2    1    5       1
     3    1    8       2
     4    2    3       2
     5    2    6       1
     6    3    4       1
     7    3   22       1
     8    4   23       1
     9    5   23       1
    10    7   23       2
    11    9   10      ar
    12   10   11      ar
    13   10   12      ar
    14   10   13       1
    15   13   14       1
    16   14   15       1
    17   15   16       1
    18   15   17       1
    19   17   18       1
    20   17   19       1
    21   19   20       1
    22   19   21       1
    23   21   22       2
    24    4   24       1
    25    5   25       1
    26    6   26       1
    27    6   27       1
    28   21   36       1
    29   20   35       1
    30   14   28       1
    31   14   29       1
    32   15   30       1
    33   16   31       1
    34   17   32       1
    35   18   33       1
    36   19   34       1
@<TRIPOS>SUBSTRUCTURE
     1 AIF381      1 GROUP             4 C     AIF     0 **** AIF C 381
