@<TRIPOS>MOLECULE
4pxl_NAD_2_ligand
   70    74     1     0     0
SMALL
NO_CHARGES


@<TRIPOS>ATOM
     1 PA         -37.1670   -28.2590    17.5020 P.3          1 NAD601   0.0000
     2 O1A        -37.4370   -27.8100    18.8890 O.co2        1 NAD601   0.0000
     3 O2A        -35.8500   -29.0380    17.4170 O.co2        1 NAD601  -1.0000
     4 O5B        -37.0900   -27.0760    16.4670 O.3          1 NAD601   0.0000
     5 C5B        -37.7020   -25.7750    16.5820 C.3          1 NAD601   0.0000
     6 C4B        -36.7440   -24.7420    16.0280 C.3          1 NAD601   0.0000
     7 O4B        -35.5620   -24.6910    16.8580 O.3          1 NAD601   0.0000
     8 C3B        -36.2400   -24.9440    14.5950 C.3          1 NAD601   0.0000
     9 O3B        -36.1240   -23.6960    13.9180 O.3          1 NAD601   0.0000
    10 C2B        -34.8780   -25.6090    14.8090 C.3          1 NAD601   0.0000
    11 O2B        -33.9620   -25.4790    13.7260 O.3          1 NAD601   0.0000
    12 C1B        -34.4080   -24.8810    16.0650 C.3          1 NAD601   0.0000
    13 N9A        -33.3980   -25.5690    16.8660 N.pl3        1 NAD601   0.0000
    14 C8A        -33.1570   -26.9170    16.9370 C.2          1 NAD601   0.0000
    15 N7A        -32.1290   -27.2390    17.6860 N.2          1 NAD601   0.0000
    16 C5A        -31.6720   -26.0160    18.1600 C.ar         1 NAD601   0.0000
    17 C6A        -30.6350   -25.6700    19.0480 C.ar         1 NAD601   0.0000
    18 N6A        -29.7830   -26.5490    19.5650 N.pl3        1 NAD601   0.0000
    19 N1A        -30.4850   -24.3610    19.3640 N.ar         1 NAD601   0.0000
    20 C2A        -31.3110   -23.4640    18.8130 C.ar         1 NAD601   0.0000
    21 N3A        -32.3090   -23.6690    17.9460 N.ar         1 NAD601   0.0000
    22 C4A        -32.4470   -24.9780    17.6650 C.ar         1 NAD601   0.0000
    23 O3         -38.2820   -29.2670    16.9440 O.3          1 NAD601   0.0000
    24 PN         -38.1040   -30.5630    16.0140 P.3          1 NAD601   0.0000
    25 O1N        -36.6640   -30.8670    15.8420 O.co2        1 NAD601   0.0000
    26 O2N        -38.9180   -30.3710    14.7960 O.co2        1 NAD601  -1.0000
    27 O5D        -38.7750   -31.6950    16.9180 O.3          1 NAD601   0.0000
    28 C5D        -40.0850   -32.2280    16.6490 C.3          1 NAD601   0.0000
    29 C4D        -40.8610   -32.3250    17.9390 C.3          1 NAD601   0.0000
    30 O4D        -40.7870   -31.0660    18.6510 O.3          1 NAD601   0.0000
    31 C3D        -42.3500   -32.6060    17.7460 C.3          1 NAD601   0.0000
    32 O3D        -42.6190   -34.0020    17.8250 O.3          1 NAD601   0.0000
    33 C2D        -42.9940   -31.7640    18.8510 C.3          1 NAD601   0.0000
    34 O2D        -43.1100   -32.4830    20.0750 O.3          1 NAD601   0.0000
    35 C1D        -42.0070   -30.5730    19.1040 C.3          1 NAD601   0.0000
    36 N1N        -42.4160   -29.3020    18.2830 N.ar         1 NAD601   1.0000
    37 C2N        -43.1990   -28.3580    18.9930 C.ar         1 NAD601   0.0000
    38 C3N        -43.7840   -27.2930    18.3260 C.ar         1 NAD601   0.0000
    39 C7N        -44.5450   -26.2130    19.0720 C.2          1 NAD601   0.0000
    40 O7N        -45.2840   -25.4290    18.4400 O.2          1 NAD601   0.0000
    41 N7N        -44.4850   -26.2080    20.3910 N.am         1 NAD601   0.0000
    42 C4N        -43.5770   -27.1730    16.9540 C.ar         1 NAD601   0.0000
    43 C5N        -42.7680   -28.0820    16.2780 C.ar         1 NAD601   0.0000
    44 C6N        -42.1800   -29.1320    16.9670 C.ar         1 NAD601   0.0000
    45 H5B1       -37.8934   -25.5762    17.5432 H            1 NAD601   0.0000
    46 H5B2       -38.5556   -25.7567    16.0614 H            1 NAD601   0.0000
    47 H4B        -37.1923   -23.8493    16.0744 H            1 NAD601   0.0000
    48 H3B        -36.8515   -25.5564    14.0939 H            1 NAD601   0.0000
    49 H5         -37.0186   -23.2503    13.8849 H            1 NAD601   0.0000
    50 H2B        -35.0107   -26.5781    15.0170 H            1 NAD601   0.0000
    51 H7         -34.3551   -25.8937    12.9053 H            1 NAD601   0.0000
    52 H1B        -34.0507   -23.9852    15.8006 H            1 NAD601   0.0000
    53 H8A        -33.7158   -27.5952    16.4597 H            1 NAD601   0.0000
    54 H6A1       -29.0663   -26.2419    20.1911 H            1 NAD601   0.0000
    55 H6A2       -29.8585   -27.5175    19.3279 H            1 NAD601   0.0000
    56 H2A        -31.1625   -22.5134    19.0857 H            1 NAD601   0.0000
    57 H5D1       -39.9981   -33.1376    16.2427 H            1 NAD601   0.0000
    58 H5D2       -40.5670   -31.6241    16.0143 H            1 NAD601   0.0000
    59 H4D        -40.4630   -33.0457    18.5067 H            1 NAD601   0.0000
    60 H3D        -42.6405   -32.2614    16.8533 H            1 NAD601   0.0000
    61 H17        -41.8211   -34.5138    17.5064 H            1 NAD601   0.0000
    62 H2D        -43.8873   -31.4236    18.5576 H            1 NAD601   0.0000
    63 H19        -43.5340   -31.8980    20.7664 H            1 NAD601   0.0000
    64 H1D        -41.9582   -30.3594    20.0797 H            1 NAD601   0.0000
    65 H2N        -43.3300   -28.4606    19.9791 H            1 NAD601   0.0000
    66 H7N1       -44.9757   -25.5090    20.9112 H            1 NAD601   0.0000
    67 H7N2       -43.9488   -26.9032    20.8698 H            1 NAD601   0.0000
    68 H4N        -44.0133   -26.4275    16.4502 H            1 NAD601   0.0000
    69 H5N        -42.6109   -27.9779    15.2959 H            1 NAD601   0.0000
    70 H6N        -41.5770   -29.7671    16.4843 H            1 NAD601   0.0000
@<TRIPOS>BOND
     1    1    2      ar
     2    1    3      ar
     3    1    4       1
     4    1   23       1
     5    4    5       1
     6    5    6       1
     7    6    7       1
     8    6    8       1
     9    7   12       1
    10    8    9       1
    11    8   10       1
    12   10   11       1
    13   10   12       1
    14   12   13       1
    15   13   14       1
    16   13   22       1
    17   14   15       2
    18   15   16       1
    19   16   17      ar
    20   16   22      ar
    21   17   18       1
    22   17   19      ar
    23   19   20      ar
    24   20   21      ar
    25   21   22      ar
    26   23   24       1
    27   24   25      ar
    28   24   26      ar
    29   24   27       1
    30   27   28       1
    31   28   29       1
    32   29   30       1
    33   29   31       1
    34   30   35       1
    35   31   32       1
    36   31   33       1
    37   33   34       1
    38   33   35       1
    39   35   36       1
    40   36   37      ar
    41   36   44      ar
    42   37   38      ar
    43   38   39       1
    44   38   42      ar
    45   39   40       2
    46   39   41      am
    47   42   43      ar
    48   43   44      ar
    49   44   70       1
    50    5   45       1
    51    5   46       1
    52    6   47       1
    53    8   48       1
    54    9   49       1
    55   10   50       1
    56   11   51       1
    57   12   52       1
    58   14   53       1
    59   18   54       1
    60   18   55       1
    61   20   56       1
    62   43   69       1
    63   28   57       1
    64   28   58       1
    65   29   59       1
    66   31   60       1
    67   32   61       1
    68   33   62       1
    69   34   63       1
    70   35   64       1
    71   37   65       1
    72   41   66       1
    73   41   67       1
    74   42   68       1
@<TRIPOS>SUBSTRUCTURE
     1 NAD601      1 GROUP             4 B     NAD     0 **** NAD B 601
