@<TRIPOS>MOLECULE
4g0k_0VS_1_ligand
   55    56     1     0     0
SMALL
NO_CHARGES


@<TRIPOS>ATOM
     1 C13        -63.2290    32.3510    30.3630 C.3          1 0VS411   0.0000
     2 C15        -64.4530    32.5430    32.6820 C.2          1 0VS411   0.0000
     3 C20        -58.4430    31.8920    28.6370 C.2          1 0VS411   0.0000
     4 C22        -57.7580    33.5630    26.9010 C.3          1 0VS411   0.0000
     5 C28        -59.1150    36.8250    31.2860 C.3          1 0VS411   0.0000
     6 O01        -58.8470    39.1630    30.1710 O.2          1 0VS411   0.0000
     7 C02        -57.8870    38.4140    29.9430 C.2          1 0VS411   0.0000
     8 C03        -56.7550    38.8820    29.0720 C.ar         1 0VS411   0.0000
     9 C04        -55.6710    37.9880    28.8400 C.ar         1 0VS411   0.0000
    10 C05        -55.6230    36.5960    29.4390 C.2          1 0VS411   0.0000
    11 C06        -56.7590    36.1070    30.3160 C.2          1 0VS411   0.0000
    12 S07        -56.5820    34.4770    31.1840 S.3          1 0VS411   0.0000
    13 C08        -57.0400    32.8710    30.3850 C.3          1 0VS411   0.0000
    14 C09        -58.5140    32.8380    29.8340 C.3          1 0VS411   0.0000
    15 N10        -59.5100    32.5590    30.8840 N.am         1 0VS411   0.0000
    16 C11        -60.7730    33.2350    30.8940 C.2          1 0VS411   0.0000
    17 C12        -62.0280    32.4840    31.3630 C.3          1 0VS411   0.0000
    18 C14        -64.5440    32.7360    31.0880 C.3          1 0VS411   0.0000
    19 O16        -65.2800    33.1010    33.4680 O.co2        1 0VS411   0.0000
    20 O17        -63.9460    31.4310    32.9360 O.co2        1 0VS411  -1.0000
    21 N18        -64.8670    34.1290    30.7490 N.4          1 0VS411   1.0000
    22 O19        -60.8590    34.4100    30.5170 O.2          1 0VS411   0.0000
    23 N21        -57.7380    32.2480    27.5470 N.am         1 0VS411   0.0000
    24 C23        -57.5120    33.3310    25.3440 C.2          1 0VS411   0.0000
    25 O24        -58.0740    34.1330    24.5600 O.co2        1 0VS411   0.0000
    26 O25        -56.7460    32.3570    25.0390 O.co2        1 0VS411  -1.0000
    27 O26        -58.2280    30.7010    28.9570 O.2          1 0VS411   0.0000
    28 C27        -57.8240    37.0310    30.5270 C.2          1 0VS411   0.0000
    29 O29        -54.6350    35.8870    29.1850 O.2          1 0VS411   0.0000
    30 C30        -54.6150    38.4360    28.0250 C.ar         1 0VS411   0.0000
    31 C31        -54.6490    39.7310    27.4530 C.ar         1 0VS411   0.0000
    32 C32        -55.7130    40.6220    27.6790 C.ar         1 0VS411   0.0000
    33 C33        -56.7700    40.1870    28.4920 C.ar         1 0VS411   0.0000
    34 H1         -63.2905    31.4072    30.0384 H            1 0VS411   0.0000
    35 H2         -63.0851    32.9624    29.5849 H            1 0VS411   0.0000
    36 H3         -57.0348    34.1409    27.2792 H            1 0VS411   0.0000
    37 H4         -58.6450    34.0016    27.0455 H            1 0VS411   0.0000
    38 H5         -59.1192    35.9125    31.6950 H            1 0VS411   0.0000
    39 H6         -59.1914    37.5138    32.0069 H            1 0VS411   0.0000
    40 H7         -59.8884    36.9125    30.6581 H            1 0VS411   0.0000
    41 H8         -56.9391    32.1414    31.0614 H            1 0VS411   0.0000
    42 H9         -56.4139    32.7075    29.6226 H            1 0VS411   0.0000
    43 H10        -58.7135    33.7500    29.4755 H            1 0VS411   0.0000
    44 H11        -59.3017    31.8901    31.5976 H            1 0VS411   0.0000
    45 H12        -61.7441    31.5576    31.6103 H            1 0VS411   0.0000
    46 H13        -62.3697    32.9561    32.1757 H            1 0VS411   0.0000
    47 H14        -65.2768    32.1503    30.7418 H            1 0VS411   0.0000
    48 H15        -65.7141    34.3961    31.2085 H            1 0VS411   0.0000
    49 H16        -64.1228    34.7261    31.0485 H            1 0VS411   0.0000
    50 H17        -57.1465    31.5513    27.1410 H            1 0VS411   0.0000
    51 H18        -53.8350    37.8356    27.8485 H            1 0VS411   0.0000
    52 H19        -53.8911    40.0215    26.8689 H            1 0VS411   0.0000
    53 H20        -55.7160    41.5360    27.2733 H            1 0VS411   0.0000
    54 H21        -57.5425    40.7973    28.6674 H            1 0VS411   0.0000
    55 H22        -64.9839    34.2127    29.7594 H            1 0VS411   0.0000
@<TRIPOS>BOND
     1    1   17       1
     2    1   18       1
     3    2   18       1
     4    2   19      ar
     5    2   20      ar
     6    3   14       1
     7    3   23      am
     8    3   27       2
     9    4   23       1
    10    4   24       1
    11    5   28       1
    12    6    7       2
    13    7    8       1
    14    7   28       1
    15    8    9      ar
    16    8   33      ar
    17    9   10       1
    18    9   30      ar
    19   10   11       1
    20   10   29       2
    21   11   12       1
    22   11   28       2
    23   12   13       1
    24   13   14       1
    25   14   15       1
    26   15   16      am
    27   16   17       1
    28   16   22       2
    29   18   21       1
    30   24   25      ar
    31   24   26      ar
    32   30   31      ar
    33   31   32      ar
    34   32   33      ar
    35    1   34       1
    36    1   35       1
    37    4   36       1
    38    4   37       1
    39    5   38       1
    40    5   39       1
    41    5   40       1
    42   13   41       1
    43   13   42       1
    44   14   43       1
    45   15   44       1
    46   17   45       1
    47   17   46       1
    48   18   47       1
    49   33   54       1
    50   21   48       1
    51   21   49       1
    52   23   50       1
    53   21   55       1
    54   30   51       1
    55   31   52       1
    56   32   53       1
@<TRIPOS>SUBSTRUCTURE
     1 0VS411      1 GROUP             4 A     0VS     0 **** 0VS A 411
