@<TRIPOS>MOLECULE
1kts_C24_1_ligand
   67    70     1     0     0
SMALL
NO_CHARGES


@<TRIPOS>ATOM
     1 C2          14.3240   -11.7530    20.7750 C.ar         1 C24999   0.0000
     2 N10         15.3200   -11.9160    19.9120 N.pl3        1 C24999   0.0000
     3 C11         16.7250   -11.6230    20.1950 C.3          1 C24999   0.0000
     4 C12         17.5050   -12.6650    21.0010 C.2          1 C24999   0.0000
     5 N16         16.8850   -13.4190    21.9150 N.2          1 C24999   0.0000
     6 C15         17.9320   -14.1180    22.3800 C.ar         1 C24999   0.0000
     7 C18         17.8540   -15.0490    23.3690 C.ar         1 C24999   0.0000
     8 C19         18.9510   -15.7210    23.8070 C.ar         1 C24999   0.0000
     9 C40         18.7870   -16.6720    24.8760 C.2          1 C24999   0.0000
    10 O21         17.7890   -17.4000    24.7800 O.2          1 C24999   0.0000
    11 N22         19.5950   -16.7250    25.9630 N.am         1 C24999   0.0000
    12 C23         20.5640   -15.8050    26.1390 C.ar         1 C24999   0.0000
    13 C24         20.2100   -14.6170    26.7010 C.ar         1 C24999   0.0000
    14 C25         21.0900   -13.5420    26.7530 C.ar         1 C24999   0.0000
    15 C26         22.3540   -13.6700    26.2250 C.ar         1 C24999   0.0000
    16 C27         22.7360   -14.8770    25.6550 C.ar         1 C24999   0.0000
    17 N28         21.7980   -15.9490    25.6240 N.ar         1 C24999   0.0000
    18 C29         19.3950   -17.7270    27.0130 C.3          1 C24999   0.0000
    19 C30         18.2980   -17.3390    27.9930 C.3          1 C24999   0.0000
    20 C31         18.2060   -18.2710    29.1880 C.2          1 C24999   0.0000
    21 O32         18.7690   -17.9910    30.2470 O.2          1 C24999   0.0000
    22 O33         17.4130   -19.4890    29.1150 O.3          1 C24999   0.0000
    23 C34         18.1730   -20.6630    28.7110 C.3          1 C24999   0.0000
    24 C35         19.0210   -21.1670    29.8700 C.3          1 C24999   0.0000
    25 C20         20.1390   -15.3510    23.1550 C.ar         1 C24999   0.0000
    26 C21         20.2270   -14.3910    22.1370 C.ar         1 C24999   0.0000
    27 C14         19.0860   -13.7820    21.7780 C.ar         1 C24999   0.0000
    28 N13         18.8310   -12.8370    20.8570 N.pl3        1 C24999   0.0000
    29 C17         19.7610   -12.1870    19.9180 C.3          1 C24999   0.0000
    30 C3          14.3140   -10.7750    21.6870 C.ar         1 C24999   0.0000
    31 C4          13.2730   -10.7000    22.6130 C.ar         1 C24999   0.0000
    32 C5          12.2660   -11.6010    22.6330 C.ar         1 C24999   0.0000
    33 C7          11.2710   -11.5560    23.5970 C.cat        1 C24999   0.0000
    34 N9          11.2420   -10.5860    24.5090 N.pl3        1 C24999   1.0000
    35 N8          10.3280   -12.4910    23.6340 N.pl3        1 C24999   0.0000
    36 C6          12.2990   -12.5630    21.6970 C.ar         1 C24999   0.0000
    37 C1          13.3350   -12.6420    20.7700 C.ar         1 C24999   0.0000
    38 H1          15.0931   -12.2644    19.0025 H            1 C24999   0.0000
    39 H2          16.7569   -10.7627    20.7038 H            1 C24999   0.0000
    40 H3          17.1917   -11.5091    19.3180 H            1 C24999   0.0000
    41 H4          16.9657   -15.2440    23.7848 H            1 C24999   0.0000
    42 H5          19.2930   -14.5147    27.0866 H            1 C24999   0.0000
    43 H6          20.8056   -12.6798    27.1722 H            1 C24999   0.0000
    44 H7          22.9920   -12.9004    26.2515 H            1 C24999   0.0000
    45 H8          23.6530   -14.9919    25.2731 H            1 C24999   0.0000
    46 H9          20.2511   -17.8366    27.5180 H            1 C24999   0.0000
    47 H10         19.1478   -18.5956    26.5835 H            1 C24999   0.0000
    48 H11         17.4219   -17.3528    27.5111 H            1 C24999   0.0000
    49 H12         18.4812   -16.4137    28.3250 H            1 C24999   0.0000
    50 H13         18.7699   -20.4224    27.9456 H            1 C24999   0.0000
    51 H14         17.5407   -21.3837    28.4269 H            1 C24999   0.0000
    52 H15         19.5374   -21.9726    29.5796 H            1 C24999   0.0000
    53 H16         19.6560   -20.4491    30.1553 H            1 C24999   0.0000
    54 H17         18.4268   -21.4104    30.6366 H            1 C24999   0.0000
    55 H18         20.9837   -15.8056    23.4376 H            1 C24999   0.0000
    56 H19         21.0986   -14.1704    21.6991 H            1 C24999   0.0000
    57 H20         20.6855   -12.5374    20.0682 H            1 C24999   0.0000
    58 H21         19.4784   -12.3837    18.9791 H            1 C24999   0.0000
    59 H22         19.7505   -11.1985    20.0691 H            1 C24999   0.0000
    60 H23         15.0508   -10.0991    21.7053 H            1 C24999   0.0000
    61 H24         13.2720    -9.9569    23.2822 H            1 C24999   0.0000
    62 H25         10.5170   -10.5685    25.1975 H            1 C24999   0.0000
    63 H26         11.9453    -9.8751    24.5054 H            1 C24999   0.0000
    64 H27          9.6130   -12.4527    24.3321 H            1 C24999   0.0000
    65 H28         11.5624   -13.2385    21.6648 H            1 C24999   0.0000
    66 H29         13.3353   -13.3768    20.0917 H            1 C24999   0.0000
    67 H30         10.3332   -13.2331    22.9638 H            1 C24999   0.0000
@<TRIPOS>BOND
     1    1    2       1
     2    1   30      ar
     3    1   37      ar
     4    2    3       1
     5    3    4       1
     6    4    5       2
     7    4   28       1
     8    5    6       1
     9    6    7      ar
    10    6   27      ar
    11    7    8      ar
    12    8    9       1
    13    8   25      ar
    14    9   10       2
    15    9   11      am
    16   11   12       1
    17   11   18       1
    18   12   13      ar
    19   12   17      ar
    20   13   14      ar
    21   14   15      ar
    22   15   16      ar
    23   16   17      ar
    24   18   19       1
    25   19   20       1
    26   20   21       2
    27   20   22       1
    28   22   23       1
    29   23   24       1
    30   25   26      ar
    31   26   27      ar
    32   27   28       1
    33   28   29       1
    34   30   31      ar
    35   31   32      ar
    36   32   33       1
    37   32   36      ar
    38   33   34      ar
    39   33   35      ar
    40   36   37      ar
    41    2   38       1
    42    3   39       1
    43    3   40       1
    44    7   41       1
    45   13   42       1
    46   14   43       1
    47   15   44       1
    48   16   45       1
    49   18   46       1
    50   18   47       1
    51   19   48       1
    52   19   49       1
    53   23   50       1
    54   23   51       1
    55   24   52       1
    56   24   53       1
    57   24   54       1
    58   25   55       1
    59   26   56       1
    60   29   57       1
    61   29   58       1
    62   29   59       1
    63   30   60       1
    64   31   61       1
    65   34   62       1
    66   34   63       1
    67   35   64       1
    68   36   65       1
    69   37   66       1
    70   35   67       1
@<TRIPOS>SUBSTRUCTURE
     1 C24999      1 GROUP             4 B     C24     0 **** C24 B 999
