@<TRIPOS>MOLECULE
3bsf_ADE_1_ligand
   15    16     1     0     0
SMALL
NO_CHARGES


@<TRIPOS>ATOM
     1 N9         -14.1220    15.1600    -6.9660 N.2          1 ADE701   0.0000
     2 C8         -13.4160    14.3240    -7.7730 C.2          1 ADE701   0.0000
     3 N7         -13.5080    14.6220    -9.1010 N.pl3        1 ADE701   0.0000
     4 C5         -14.3310    15.7260    -9.1320 C.ar         1 ADE701   0.0000
     5 C6         -14.8570    16.5710   -10.2030 C.ar         1 ADE701   0.0000
     6 N6         -14.5560    16.3370   -11.4770 N.pl3        1 ADE701   0.0000
     7 N1         -15.7060    17.6590    -9.8440 N.ar         1 ADE701   0.0000
     8 C2         -16.0080    17.8860    -8.5160 C.ar         1 ADE701   0.0000
     9 N3         -15.5520    17.1310    -7.4320 N.ar         1 ADE701   0.0000
    10 C4         -14.7250    16.0770    -7.8190 C.ar         1 ADE701   0.0000
    11 H1         -12.8766    13.5578    -7.4237 H            1 ADE701   0.0000
    12 H2         -14.9261    16.9268   -12.1947 H            1 ADE701   0.0000
    13 H3         -13.9595    15.5712   -11.7173 H            1 ADE701   0.0000
    14 H4         -16.6069    18.6603    -8.3114 H            1 ADE701   0.0000
    15 H5         -13.0788    14.1499    -9.8710 H            1 ADE701   0.0000
@<TRIPOS>BOND
     1    1    2       2
     2    1   10       1
     3    2    3       1
     4    3    4       1
     5    4    5      ar
     6    4   10      ar
     7    5    6       1
     8    5    7      ar
     9    7    8      ar
    10    8    9      ar
    11    9   10      ar
    12    8   14       1
    13    2   11       1
    14    6   12       1
    15    6   13       1
    16    3   15       1
@<TRIPOS>SUBSTRUCTURE
     1 ADE701      1 GROUP             4 A     ADE     0 **** ADE A 701
