@<TRIPOS>MOLECULE
2zit_NAD_3_ligand
   70    74     1     0     0
SMALL
NO_CHARGES


@<TRIPOS>ATOM
     1 PA         -51.1760   -39.5530    92.5450 P.3          1 NAD702   0.0000
     2 O1A        -52.5360   -39.2380    93.0910 O.co2        1 NAD702   0.0000
     3 O2A        -50.1190   -40.0510    93.4890 O.co2        1 NAD702  -1.0000
     4 O5B        -50.6740   -38.2340    91.7910 O.3          1 NAD702   0.0000
     5 C5B        -51.5250   -37.7460    90.7610 C.3          1 NAD702   0.0000
     6 C4B        -50.8070   -37.3870    89.4630 C.3          1 NAD702   0.0000
     7 O4B        -50.2840   -36.0540    89.4650 O.3          1 NAD702   0.0000
     8 C3B        -49.6530   -38.3110    89.0820 C.3          1 NAD702   0.0000
     9 O3B        -50.0800   -39.2560    88.0970 O.3          1 NAD702   0.0000
    10 C2B        -48.5960   -37.3750    88.5170 C.3          1 NAD702   0.0000
    11 O2B        -48.1130   -37.7980    87.2400 O.3          1 NAD702   0.0000
    12 C1B        -49.3400   -36.0530    88.3920 C.3          1 NAD702   0.0000
    13 N9A        -48.4360   -34.8710    88.2940 N.pl3        1 NAD702   0.0000
    14 C8A        -48.4650   -33.9860    87.2870 C.2          1 NAD702   0.0000
    15 N7A        -47.5290   -33.0390    87.4970 N.2          1 NAD702   0.0000
    16 C5A        -46.9070   -33.3320    88.6530 C.ar         1 NAD702   0.0000
    17 C6A        -45.8780   -32.7130    89.3460 C.ar         1 NAD702   0.0000
    18 N6A        -45.3060   -31.5800    88.8640 N.pl3        1 NAD702   0.0000
    19 N1A        -45.4600   -33.2570    90.5090 N.ar         1 NAD702   0.0000
    20 C2A        -46.0270   -34.3750    90.9840 C.ar         1 NAD702   0.0000
    21 N3A        -47.0230   -34.9920    90.3320 N.ar         1 NAD702   0.0000
    22 C4A        -47.4880   -34.4850    89.1620 C.ar         1 NAD702   0.0000
    23 O3         -51.3240   -40.5960    91.3250 O.3          1 NAD702   0.0000
    24 PN         -50.1450   -41.6270    90.9370 P.3          1 NAD702   0.0000
    25 O1N        -48.9600   -41.3850    91.8230 O.co2        1 NAD702   0.0000
    26 O2N        -49.9510   -41.6180    89.4490 O.co2        1 NAD702  -1.0000
    27 O5D        -50.8480   -42.9960    91.3810 O.3          1 NAD702   0.0000
    28 C5D        -50.9700   -43.2350    92.7830 C.3          1 NAD702   0.0000
    29 C4D        -51.1370   -44.7120    93.1140 C.3          1 NAD702   0.0000
    30 O4D        -50.4730   -45.5100    92.1380 O.3          1 NAD702   0.0000
    31 C3D        -50.4850   -44.9890    94.4550 C.3          1 NAD702   0.0000
    32 O3D        -51.4680   -45.2630    95.4580 O.3          1 NAD702   0.0000
    33 C2D        -49.5980   -46.1950    94.2330 C.3          1 NAD702   0.0000
    34 O2D        -50.0990   -47.3060    94.9890 O.3          1 NAD702   0.0000
    35 C1D        -49.6610   -46.5090    92.7480 C.3          1 NAD702   0.0000
    36 N1N        -48.3170   -46.4570    92.1580 N.ar         1 NAD702   1.0000
    37 C2N        -48.0960   -45.6960    91.0770 C.ar         1 NAD702   0.0000
    38 C3N        -46.8370   -45.6360    90.4860 C.ar         1 NAD702   0.0000
    39 C7N        -46.6220   -44.7710    89.2770 C.2          1 NAD702   0.0000
    40 O7N        -45.6880   -45.0080    88.5300 O.2          1 NAD702   0.0000
    41 N7N        -47.4710   -43.7740    89.0460 N.am         1 NAD702   0.0000
    42 C4N        -45.7980   -46.3910    91.0150 C.ar         1 NAD702   0.0000
    43 C5N        -46.0490   -47.1770    92.1290 C.ar         1 NAD702   0.0000
    44 C6N        -47.3280   -47.1990    92.6760 C.ar         1 NAD702   0.0000
    45 H5B1       -51.9865   -36.9260    91.0996 H            1 NAD702   0.0000
    46 H5B2       -52.2045   -38.4508    90.5573 H            1 NAD702   0.0000
    47 H4B        -51.4824   -37.4386    88.7274 H            1 NAD702   0.0000
    48 H3B        -49.3035   -38.7841    89.8907 H            1 NAD702   0.0000
    49 H5         -49.9670   -40.1834    88.4537 H            1 NAD702   0.0000
    50 H2B        -47.8361   -37.2839    89.1606 H            1 NAD702   0.0000
    51 H7         -47.3264   -38.4027    87.3647 H            1 NAD702   0.0000
    52 H1B        -49.8642   -36.0917    87.5413 H            1 NAD702   0.0000
    53 H8A        -49.0843   -34.0228    86.5027 H            1 NAD702   0.0000
    54 H6A1       -44.5643   -31.1399    89.3702 H            1 NAD702   0.0000
    55 H6A2       -45.6264   -31.1855    88.0028 H            1 NAD702   0.0000
    56 H2A        -45.6986   -34.7588    91.8470 H            1 NAD702   0.0000
    57 H5D1       -51.7681   -42.7383    93.1241 H            1 NAD702   0.0000
    58 H5D2       -50.1467   -42.8960    93.2383 H            1 NAD702   0.0000
    59 H4D        -52.1080   -44.9487    93.1486 H            1 NAD702   0.0000
    60 H3D        -49.9288   -44.2048    94.7303 H            1 NAD702   0.0000
    61 H17        -51.3190   -46.1795    95.8292 H            1 NAD702   0.0000
    62 H2D        -48.6578   -45.9879    94.5035 H            1 NAD702   0.0000
    63 H19        -49.3390   -47.9008    95.2509 H            1 NAD702   0.0000
    64 H1D        -50.0638   -47.4131    92.6051 H            1 NAD702   0.0000
    65 H2N        -48.8476   -45.1627    90.6888 H            1 NAD702   0.0000
    66 H7N1       -47.3462   -43.1860    88.2468 H            1 NAD702   0.0000
    67 H7N2       -48.2343   -43.6122    89.6715 H            1 NAD702   0.0000
    68 H4N        -44.8880   -46.3680    90.6009 H            1 NAD702   0.0000
    69 H5N        -45.3170   -47.7235    92.5359 H            1 NAD702   0.0000
    70 H6N        -47.5128   -47.7786    93.4697 H            1 NAD702   0.0000
@<TRIPOS>BOND
     1    1    2      ar
     2    1    3      ar
     3    1    4       1
     4    1   23       1
     5    4    5       1
     6    5    6       1
     7    6    7       1
     8    6    8       1
     9    7   12       1
    10    8    9       1
    11    8   10       1
    12   10   11       1
    13   10   12       1
    14   12   13       1
    15   13   14       1
    16   13   22       1
    17   14   15       2
    18   15   16       1
    19   16   17      ar
    20   16   22      ar
    21   17   18       1
    22   17   19      ar
    23   19   20      ar
    24   20   21      ar
    25   21   22      ar
    26   23   24       1
    27   24   25      ar
    28   24   26      ar
    29   24   27       1
    30   27   28       1
    31   28   29       1
    32   29   30       1
    33   29   31       1
    34   30   35       1
    35   31   32       1
    36   31   33       1
    37   33   34       1
    38   33   35       1
    39   35   36       1
    40   36   37      ar
    41   36   44      ar
    42   37   38      ar
    43   38   39       1
    44   38   42      ar
    45   39   40       2
    46   39   41      am
    47   42   43      ar
    48   43   44      ar
    49   44   70       1
    50    5   45       1
    51    5   46       1
    52    6   47       1
    53    8   48       1
    54    9   49       1
    55   10   50       1
    56   11   51       1
    57   12   52       1
    58   14   53       1
    59   18   54       1
    60   18   55       1
    61   20   56       1
    62   43   69       1
    63   28   57       1
    64   28   58       1
    65   29   59       1
    66   31   60       1
    67   32   61       1
    68   33   62       1
    69   34   63       1
    70   35   64       1
    71   37   65       1
    72   41   66       1
    73   41   67       1
    74   42   68       1
@<TRIPOS>SUBSTRUCTURE
     1 NAD702      1 GROUP             4 F     NAD     0 **** NAD F 702
