@<TRIPOS>MOLECULE
3u4l_ATP_1_ligand
   43    45     1     0     0
SMALL
NO_CHARGES


@<TRIPOS>ATOM
     1 PG         -10.4120   -15.7680    25.6250 P.3          1 ATP401   0.0000
     2 O1G        -11.4140   -15.1090    26.5400 O.co2        1 ATP401   0.0000
     3 O2G        -10.2040   -15.1400    24.2680 O.co2        1 ATP401  -1.0000
     4 O3G        -10.7000   -17.2280    25.5570 O.co2        1 ATP401  -1.0000
     5 PB          -7.9830   -16.7000    26.7090 P.3          1 ATP401   0.0000
     6 O1B         -7.8090   -16.7730    28.2190 O.co2        1 ATP401   0.0000
     7 O2B         -8.6210   -17.8420    26.0040 O.co2        1 ATP401  -1.0000
     8 O3B         -8.9360   -15.4760    26.2740 O.3          1 ATP401   0.0000
     9 PA          -5.8670   -17.6570    25.0260 P.3          1 ATP401   0.0000
    10 O1A         -4.3900   -17.7640    25.3350 O.co2        1 ATP401   0.0000
    11 O2A         -6.2640   -17.3230    23.6270 O.co2        1 ATP401  -1.0000
    12 O3A         -6.5310   -16.5550    26.0320 O.3          1 ATP401   0.0000
    13 O5'         -6.4850   -19.1000    25.2980 O.3          1 ATP401   0.0000
    14 C5'         -5.6380   -20.2320    25.5070 C.3          1 ATP401   0.0000
    15 C4'         -6.3330   -21.5120    25.0520 C.3          1 ATP401   0.0000
    16 O4'         -5.5890   -22.0380    23.9530 O.3          1 ATP401   0.0000
    17 C3'         -6.3210   -22.5960    26.1160 C.3          1 ATP401   0.0000
    18 O3'         -7.5800   -23.2870    26.1090 O.3          1 ATP401   0.0000
    19 C2'         -5.2370   -23.5530    25.6720 C.3          1 ATP401   0.0000
    20 O2'         -5.5730   -24.8920    26.0280 O.3          1 ATP401   0.0000
    21 C1'         -5.2130   -23.3890    24.1630 C.3          1 ATP401   0.0000
    22 N9          -3.8620   -23.7420    23.6690 N.pl3        1 ATP401   0.0000
    23 C8          -2.6970   -23.2560    24.1540 C.2          1 ATP401   0.0000
    24 N7          -1.6360   -23.8130    23.5270 N.2          1 ATP401   0.0000
    25 C5          -2.1130   -24.6850    22.6150 C.ar         1 ATP401   0.0000
    26 C6          -1.5320   -25.6240    21.6030 C.ar         1 ATP401   0.0000
    27 N6          -0.1920   -25.7060    21.4670 N.pl3        1 ATP401   0.0000
    28 N1          -2.3810   -26.3760    20.8270 N.ar         1 ATP401   0.0000
    29 C2          -3.7290   -26.2950    20.9700 C.ar         1 ATP401   0.0000
    30 N3          -4.3190   -25.4580    21.8720 N.ar         1 ATP401   0.0000
    31 C4          -3.5910   -24.6420    22.7070 C.ar         1 ATP401   0.0000
    32 H5'1        -5.4198   -20.3043    26.4802 H            1 ATP401   0.0000
    33 H5'2        -4.7940   -20.1123    24.9842 H            1 ATP401   0.0000
    34 H4'         -7.2720   -21.3142    24.7706 H            1 ATP401   0.0000
    35 H3'         -6.1212   -22.2156    27.0190 H            1 ATP401   0.0000
    36 H5          -7.4275   -24.2557    25.9134 H            1 ATP401   0.0000
    37 H2'         -4.3559   -23.2944    26.0679 H            1 ATP401   0.0000
    38 H7          -4.7356   -25.4133    26.1926 H            1 ATP401   0.0000
    39 H1'         -5.8916   -23.9952    23.7482 H            1 ATP401   0.0000
    40 H9          -2.6289   -22.5735    24.8817 H            1 ATP401   0.0000
    41 H10          0.2050   -26.3301    20.7940 H            1 ATP401   0.0000
    42 H11          0.4040   -25.1427    22.0392 H            1 ATP401   0.0000
    43 H12         -4.3102   -26.8694    20.3936 H            1 ATP401   0.0000
@<TRIPOS>BOND
     1    1    2      ar
     2    1    3      ar
     3    1    4      ar
     4    1    8       1
     5    5    6      ar
     6    5    7      ar
     7    5    8       1
     8    5   12       1
     9    9   10      ar
    10    9   11      ar
    11    9   12       1
    12    9   13       1
    13   13   14       1
    14   14   15       1
    15   15   16       1
    16   15   17       1
    17   16   21       1
    18   17   18       1
    19   17   19       1
    20   19   20       1
    21   19   21       1
    22   21   22       1
    23   22   23       1
    24   22   31       1
    25   23   24       2
    26   24   25       1
    27   25   26      ar
    28   25   31      ar
    29   26   27       1
    30   26   28      ar
    31   28   29      ar
    32   29   30      ar
    33   30   31      ar
    34   29   43       1
    35   27   42       1
    36   27   41       1
    37   23   40       1
    38   14   32       1
    39   14   33       1
    40   15   34       1
    41   17   35       1
    42   18   36       1
    43   19   37       1
    44   20   38       1
    45   21   39       1
@<TRIPOS>SUBSTRUCTURE
     1 ATP401      1 GROUP             4 A     ATP     0 **** ATP A 401
