@<TRIPOS>MOLECULE
2vwg_LGC_1_ligand
   22    22     1     0     0
SMALL
NO_CHARGES


@<TRIPOS>ATOM
     1 C1           8.3230    35.7910    19.0330 C.2          1 LGC600   0.0000
     2 C2           8.6880    37.2220    19.1900 C.3          1 LGC600   0.0000
     3 O5           8.8470    34.9950    17.9890 O.3          1 LGC600   0.0000
     4 O1           7.5550    35.2740    19.8350 O.2          1 LGC600   0.0000
     5 O2           7.5590    37.9490    19.6070 O.3          1 LGC600   0.0000
     6 C3           9.2630    37.8540    17.9340 C.3          1 LGC600   0.0000
     7 O3           9.9770    39.0170    18.2930 O.3          1 LGC600   0.0000
     8 C4          10.2030    36.9050    17.2060 C.3          1 LGC600   0.0000
     9 O4          10.6410    37.5530    16.0360 O.3          1 LGC600   0.0000
    10 C5           9.4540    35.6140    16.8650 C.3          1 LGC600   0.0000
    11 C6          10.3680    34.6010    16.1720 C.3          1 LGC600   0.0000
    12 O6          11.3960    34.2170    17.0520 O.3          1 LGC600   0.0000
    13 H1           9.3785    37.2861    19.9105 H            1 LGC600   0.0000
    14 H2           7.8505    38.7279    20.1623 H            1 LGC600   0.0000
    15 H3           8.5135    38.1060    17.3218 H            1 LGC600   0.0000
    16 H4           9.3611    39.8046    18.2767 H            1 LGC600   0.0000
    17 H5          10.9880    36.6952    17.7890 H            1 LGC600   0.0000
    18 H6          11.5589    37.2329    15.8014 H            1 LGC600   0.0000
    19 H7           8.7253    35.8502    16.2221 H            1 LGC600   0.0000
    20 H8          10.7670    35.0168    15.3547 H            1 LGC600   0.0000
    21 H9           9.8354    33.7961    15.9104 H            1 LGC600   0.0000
    22 H10         12.1775    34.8308    16.9397 H            1 LGC600   0.0000
@<TRIPOS>BOND
     1    1    2       1
     2    1    3       1
     3    1    4       2
     4    2    5       1
     5    2    6       1
     6    3   10       1
     7    6    7       1
     8    6    8       1
     9    8    9       1
    10    8   10       1
    11   10   11       1
    12   11   12       1
    13    2   13       1
    14    5   14       1
    15    6   15       1
    16    7   16       1
    17    8   17       1
    18    9   18       1
    19   10   19       1
    20   11   20       1
    21   11   21       1
    22   12   22       1
@<TRIPOS>SUBSTRUCTURE
     1 LGC600      1 GROUP             4 A     LGC     0 **** LGC A 600
