@<TRIPOS>MOLECULE
2l84_J28_1_ligand
   39    40     1     0     0
SMALL
NO_CHARGES


@<TRIPOS>ATOM
     1 S           14.9420    -1.9690     9.4200 S.o2         1 J28201   0.0000
     2 NA          14.3590     0.0020     4.7730 N.2          1 J28201   0.0000
     3 NB          15.3710    -0.5990     4.4250 N.2          1 J28201   0.0000
     4 CG          15.8020    -0.4840     3.1750 C.ar         1 J28201   0.0000
     5 CH          13.9100    -0.0980     6.0170 C.ar         1 J28201   0.0000
     6 OH          17.1500    -0.1360    -0.7210 O.3          1 J28201   0.0000
     7 CK          12.9540    -0.2870     8.6110 C.ar         1 J28201   0.0000
     8 NL          17.6050    -1.9000     3.6220 N.pl3        1 J28201   0.0000
     9 CM          14.7810     1.3070    -0.0330 C.3          1 J28201   0.0000
    10 CN          12.4130    -0.3770    10.0400 C.3          1 J28201   0.0000
    11 CP          12.0370     1.4580     5.3830 C.3          1 J28201   0.0000
    12 OT          14.0580    -2.9740     9.9220 O.co2        1 J28201   0.0000
    13 CZ          16.6990    -0.2480     0.5670 C.ar         1 J28201   0.0000
    14 OC1         16.1200    -2.6240     8.7600 O.co2        1 J28201   0.0000
    15 OC2         15.4190    -1.1090    10.5530 O.co2        1 J28201  -1.0000
    16 CD1         16.9410    -1.1500     2.7570 C.ar         1 J28201   0.0000
    17 CD2         15.1170     0.3040     2.2600 C.ar         1 J28201   0.0000
    18 CE1         17.3910    -1.0360     1.4600 C.ar         1 J28201   0.0000
    19 CE2         15.5580     0.4270     0.9610 C.ar         1 J28201   0.0000
    20 CI1         14.5680    -0.8790     6.9530 C.ar         1 J28201   0.0000
    21 CI2         12.7710     0.5850     6.4020 C.ar         1 J28201   0.0000
    22 CJ1         14.0960    -0.9780     8.2500 C.ar         1 J28201   0.0000
    23 CJ2         12.2930     0.4930     7.6900 C.ar         1 J28201   0.0000
    24 HH          17.9750    -0.6239    -1.0061 H            1 J28201   0.0000
    25 HL1         18.4294    -2.3863     3.3325 H            1 J28201   0.0000
    26 HL2         17.2823    -1.9804     4.5651 H            1 J28201   0.0000
    27 HM1         13.9910     1.7120     0.4273 H            1 J28201   0.0000
    28 HM2         15.3781     2.0340    -0.3720 H            1 J28201   0.0000
    29 HM3         14.4688     0.7471    -0.8005 H            1 J28201   0.0000
    30 HN1         11.5879     0.1823    10.1199 H            1 J28201   0.0000
    31 HN2         12.1926    -1.3287    10.2536 H            1 J28201   0.0000
    32 HN3         13.1051    -0.0434    10.6801 H            1 J28201   0.0000
    33 HP1         11.2407     1.8792     5.8171 H            1 J28201   0.0000
    34 HP2         12.6528     2.1727     5.0514 H            1 J28201   0.0000
    35 HP3         11.7376     0.8929     4.6142 H            1 J28201   0.0000
    36 HD2         14.2915     0.7893     2.5482 H            1 J28201   0.0000
    37 HE1         18.2148    -1.5222     1.1687 H            1 J28201   0.0000
    38 HI1         15.3937    -1.3771     6.6883 H            1 J28201   0.0000
    39 HJ2         11.4678     0.9916     7.9554 H            1 J28201   0.0000
@<TRIPOS>BOND
     1    1   12      ar
     2    1   14      ar
     3    1   15      ar
     4    1   22       1
     5    2    3       2
     6    2    5       1
     7    3    4       1
     8    4   16      ar
     9    4   17      ar
    10    5   20      ar
    11    5   21      ar
    12    6   13       1
    13    7   10       1
    14    7   22      ar
    15    7   23      ar
    16    8   16       1
    17    9   19       1
    18   11   21       1
    19   13   18      ar
    20   13   19      ar
    21   16   18      ar
    22   17   19      ar
    23   20   22      ar
    24   21   23      ar
    25    6   24       1
    26    8   25       1
    27    8   26       1
    28    9   27       1
    29    9   28       1
    30    9   29       1
    31   10   30       1
    32   10   31       1
    33   10   32       1
    34   11   33       1
    35   11   34       1
    36   11   35       1
    37   23   39       1
    38   17   36       1
    39   18   37       1
    40   20   38       1
@<TRIPOS>SUBSTRUCTURE
     1 J28201      1 GROUP             4 A     J28     0 **** J28 A 201
