@<TRIPOS>MOLECULE
4r4u_COA_1_ligand
   80    82     1     0     0
SMALL
NO_CHARGES


@<TRIPOS>ATOM
     1 N1A         17.6250   -50.6010   -30.3930 N.ar         1 COA302   0.0000
     2 C2A         18.8180   -50.9290   -29.8520 C.ar         1 COA302   0.0000
     3 N3A         19.9270   -50.1640   -29.9630 N.ar         1 COA302   0.0000
     4 C4A         19.8970   -48.9880   -30.6430 C.ar         1 COA302   0.0000
     5 C5A         18.6290   -48.5550   -31.2590 C.ar         1 COA302   0.0000
     6 C6A         17.4530   -49.4570   -31.0960 C.ar         1 COA302   0.0000
     7 N6A         16.2410   -49.1600   -31.6210 N.pl3        1 COA302   0.0000
     8 N7A         18.8820   -47.3700   -31.8520 N.2          1 COA302   0.0000
     9 C8A         20.1890   -47.0680   -31.6420 C.2          1 COA302   0.0000
    10 N9A         20.7990   -48.0410   -30.9200 N.pl3        1 COA302   0.0000
    11 C1B         22.2160   -48.1040   -30.4450 C.3          1 COA302   0.0000
    12 C2B         23.1860   -47.0930   -31.0610 C.3          1 COA302   0.0000
    13 O2B         23.6960   -47.5830   -32.3040 O.3          1 COA302   0.0000
    14 C3B         24.2300   -46.8430   -29.9630 C.3          1 COA302   0.0000
    15 O3B         25.4940   -47.5220   -30.0640 O.3          1 COA302   0.0000
    16 P3B         26.5160   -47.6430   -28.7870 P.3          1 COA302   0.0000
    17 O7A         27.8150   -48.1260   -29.3920 O.co2        1 COA302   0.0000
    18 O8A         25.9470   -48.6480   -27.8020 O.co2        1 COA302  -1.0000
    19 O9A         26.5550   -46.2280   -28.2560 O.co2        1 COA302  -1.0000
    20 C4B         23.5760   -47.3940   -28.7000 C.3          1 COA302   0.0000
    21 O4B         22.2480   -47.7980   -29.0440 O.3          1 COA302   0.0000
    22 C5B         23.6880   -46.4120   -27.5400 C.3          1 COA302   0.0000
    23 O5B         22.3890   -46.0250   -27.2040 O.3          1 COA302   0.0000
    24 P1A         21.7640   -46.0490   -25.7490 P.3          1 COA302   0.0000
    25 O1A         22.3670   -47.1470   -24.9160 O.co2        1 COA302   0.0000
    26 O2A         21.6740   -44.6340   -25.2650 O.co2        1 COA302  -1.0000
    27 O3A         20.3920   -46.5170   -26.4460 O.3          1 COA302   0.0000
    28 P2A         19.0420   -47.1680   -25.8890 P.3          1 COA302   0.0000
    29 O4A         18.5350   -48.2010   -26.8760 O.co2        1 COA302   0.0000
    30 O5A         19.0700   -47.5090   -24.4150 O.co2        1 COA302  -1.0000
    31 O6A         18.1310   -45.8760   -25.9960 O.3          1 COA302   0.0000
    32 CBP         16.8230   -44.1020   -26.9820 C.3          1 COA302   0.0000
    33 CCP         17.4750   -45.4820   -27.1870 C.3          1 COA302   0.0000
    34 CDP         15.2960   -44.2640   -26.9170 C.3          1 COA302   0.0000
    35 CEP         17.2680   -43.3660   -25.7220 C.3          1 COA302   0.0000
    36 CAP         17.3220   -43.1690   -28.0520 C.3          1 COA302   0.0000
    37 OAP         18.6670   -43.4770   -28.4820 O.3          1 COA302   0.0000
    38 C9P         16.3850   -43.2350   -29.1830 C.2          1 COA302   0.0000
    39 O9P         16.5330   -44.1170   -30.0070 O.2          1 COA302   0.0000
    40 N8P         15.4260   -42.2980   -29.1680 N.am         1 COA302   0.0000
    41 C7P         14.4350   -42.2910   -30.2270 C.3          1 COA302   0.0000
    42 C6P         14.9910   -41.6720   -31.4980 C.3          1 COA302   0.0000
    43 C5P         14.1000   -40.5690   -31.9980 C.2          1 COA302   0.0000
    44 O5P         14.3070   -39.3970   -31.6750 O.2          1 COA302   0.0000
    45 N4P         13.1700   -40.9540   -32.8560 N.am         1 COA302   0.0000
    46 C3P         12.4400   -39.9690   -33.6270 C.3          1 COA302   0.0000
    47 C2P         11.2710   -40.6210   -34.3310 C.3          1 COA302   0.0000
    48 S1P         10.0810   -41.1400   -33.0950 S.3          1 COA302   0.0000
    49 H2A         18.8848   -51.7858   -29.3406 H            1 COA302   0.0000
    50 H6A1        16.1145   -48.3148   -32.1402 H            1 COA302   0.0000
    51 H6A2        15.4722   -49.7858   -31.4896 H            1 COA302   0.0000
    52 H8A         20.6408   -46.2402   -31.9746 H            1 COA302   0.0000
    53 H1B         22.5699   -49.0283   -30.5878 H            1 COA302   0.0000
    54 H2B         22.6923   -46.2404   -31.2323 H            1 COA302   0.0000
    55 H7          24.3272   -46.9120   -32.6930 H            1 COA302   0.0000
    56 H3B         24.3830   -45.8600   -29.8615 H            1 COA302   0.0000
    57 H4B         24.0792   -48.2183   -28.4406 H            1 COA302   0.0000
    58 H5B1        24.2232   -45.6138   -27.8165 H            1 COA302   0.0000
    59 H5B2        24.1277   -46.8535   -26.7579 H            1 COA302   0.0000
    60 HCP1        16.7699   -46.1529   -27.4167 H            1 COA302   0.0000
    61 HCP2        18.1401   -45.4290   -27.9319 H            1 COA302   0.0000
    62 HDP1        14.8712   -43.3686   -26.7839 H            1 COA302   0.0000
    63 HDP2        14.9667   -44.6654   -27.7716 H            1 COA302   0.0000
    64 HDP3        15.0566   -44.8634   -26.1532 H            1 COA302   0.0000
    65 HEP1        16.7988   -42.4846   -25.6676 H            1 COA302   0.0000
    66 HEP2        17.0407   -43.9148   -24.9176 H            1 COA302   0.0000
    67 HEP3        18.2562   -43.2162   -25.7549 H            1 COA302   0.0000
    68 HAP         17.3125   -42.2376   -27.6882 H            1 COA302   0.0000
    69 H21         18.9470   -42.8292   -29.1905 H            1 COA302   0.0000
    70 H8P         15.3946   -41.6149   -28.4383 H            1 COA302   0.0000
    71 H7P1        13.6412   -41.7619   -29.9270 H            1 COA302   0.0000
    72 H7P2        14.1555   -43.2320   -30.4180 H            1 COA302   0.0000
    73 H6P1        15.0617   -42.3790   -32.2017 H            1 COA302   0.0000
    74 H6P2        15.8989   -41.2980   -31.3089 H            1 COA302   0.0000
    75 H4P         12.9705   -41.9269   -32.9726 H            1 COA302   0.0000
    76 H3P1        13.0505   -39.5626   -34.3068 H            1 COA302   0.0000
    77 H3P2        12.1007   -39.2550   -33.0146 H            1 COA302   0.0000
    78 H2P1        11.5891   -41.4158   -34.8478 H            1 COA302   0.0000
    79 H2P2        10.8452   -39.9661   -34.9553 H            1 COA302   0.0000
    80 H1P         10.2892   -42.0735   -32.8031 H            1 COA302   0.0000
@<TRIPOS>BOND
     1    1    2      ar
     2    1    6      ar
     3    2    3      ar
     4    3    4      ar
     5    4    5      ar
     6    4   10       1
     7    5    6      ar
     8    5    8       1
     9    6    7       1
    10    8    9       2
    11    9   10       1
    12   10   11       1
    13   11   12       1
    14   11   21       1
    15   12   13       1
    16   12   14       1
    17   14   15       1
    18   14   20       1
    19   15   16       1
    20   16   17      ar
    21   16   18      ar
    22   16   19      ar
    23   20   21       1
    24   20   22       1
    25   22   23       1
    26   23   24       1
    27   24   25      ar
    28   24   26      ar
    29   24   27       1
    30   27   28       1
    31   28   29      ar
    32   28   30      ar
    33   28   31       1
    34   31   33       1
    35   32   33       1
    36   32   34       1
    37   32   35       1
    38   32   36       1
    39   36   37       1
    40   36   38       1
    41   38   39       2
    42   38   40      am
    43   40   41       1
    44   41   42       1
    45   42   43       1
    46   43   44       2
    47   43   45      am
    48   45   46       1
    49   46   47       1
    50   47   48       1
    51    2   49       1
    52    7   50       1
    53    7   51       1
    54    9   52       1
    55   11   53       1
    56   12   54       1
    57   13   55       1
    58   14   56       1
    59   48   80       1
    60   47   79       1
    61   20   57       1
    62   22   58       1
    63   22   59       1
    64   47   78       1
    65   46   77       1
    66   33   60       1
    67   33   61       1
    68   34   62       1
    69   34   63       1
    70   34   64       1
    71   35   65       1
    72   35   66       1
    73   35   67       1
    74   36   68       1
    75   37   69       1
    76   40   70       1
    77   41   71       1
    78   41   72       1
    79   42   73       1
    80   42   74       1
    81   45   75       1
    82   46   76       1
@<TRIPOS>SUBSTRUCTURE
     1 COA302      1 GROUP             4 A     COA     0 **** COA A 302
