@<TRIPOS>MOLECULE
4epl_JAI_1_ligand
   51    51     1     0     0
SMALL
NO_CHARGES


@<TRIPOS>ATOM
     1 C           41.0340   -22.3460   -19.5600 C.2          1 JAI601   0.0000
     2 N           39.4460   -21.6460   -17.8690 N.am         1 JAI601   0.0000
     3 O1          41.5310   -21.7300   -20.5370 O.co2        1 JAI601   0.0000
     4 O2          40.6800   -23.5500   -19.5570 O.co2        1 JAI601  -1.0000
     5 O3          34.8340   -17.8830   -16.4100 O.2          1 JAI601   0.0000
     6 CA          40.8460   -21.5700   -18.2750 C.3          1 JAI601   0.0000
     7 CB          41.8670   -21.8810   -17.1640 C.3          1 JAI601   0.0000
     8 C01         35.7920   -14.4570   -21.9540 C.3          1 JAI601   0.0000
     9 C02         35.9040   -15.7780   -21.2380 C.3          1 JAI601   0.0000
    10 C03         35.9170   -15.5830   -19.7390 C.2          1 JAI601   0.0000
    11 C04         35.8990   -16.5720   -18.8450 C.2          1 JAI601   0.0000
    12 C05         35.8620   -18.0180   -19.2930 C.3          1 JAI601   0.0000
    13 C06         36.0590   -18.9520   -18.1000 C.3          1 JAI601   0.0000
    14 C07         34.9230   -18.8640   -17.1310 C.2          1 JAI601   0.0000
    15 C09         33.9480   -20.0150   -17.1080 C.3          1 JAI601   0.0000
    16 C10         34.5720   -21.0620   -18.0360 C.3          1 JAI601   0.0000
    17 C11         35.9760   -20.4730   -18.2590 C.3          1 JAI601   0.0000
    18 C12         37.0980   -21.2220   -17.5280 C.3          1 JAI601   0.0000
    19 C13         38.4350   -20.8060   -18.1260 C.2          1 JAI601   0.0000
    20 O14         38.5680   -19.7820   -18.7880 O.2          1 JAI601   0.0000
    21 CD1         41.0630   -19.7810   -15.9840 C.3          1 JAI601   0.0000
    22 CG1         41.4570   -21.2520   -15.8230 C.3          1 JAI601   0.0000
    23 CG2         43.3130   -21.7130   -17.6950 C.3          1 JAI601   0.0000
    24 H1          39.2059   -22.4443   -17.3166 H            1 JAI601   0.0000
    25 HA          41.0008   -20.6123   -18.5177 H            1 JAI601   0.0000
    26 HB          41.7735   -22.8651   -17.0127 H            1 JAI601   0.0000
    27 H4          35.7855   -14.6127   -22.9418 H            1 JAI601   0.0000
    28 H5          34.9440   -14.0017   -21.6827 H            1 JAI601   0.0000
    29 H6          36.5722   -13.8799   -21.7127 H            1 JAI601   0.0000
    30 H7          36.7516   -16.2298   -21.5163 H            1 JAI601   0.0000
    31 H8          35.1234   -16.3516   -21.4863 H            1 JAI601   0.0000
    32 H9          35.9408   -14.6450   -19.3931 H            1 JAI601   0.0000
    33 H10         35.9100   -16.3566   -17.8685 H            1 JAI601   0.0000
    34 H11         36.5918   -18.1753   -19.9583 H            1 JAI601   0.0000
    35 H12         34.9770   -18.2086   -19.7177 H            1 JAI601   0.0000
    36 H13         36.9106   -18.7151   -17.6325 H            1 JAI601   0.0000
    37 H14         33.0533   -19.7276   -17.4498 H            1 JAI601   0.0000
    38 H15         33.8501   -20.3773   -16.1811 H            1 JAI601   0.0000
    39 H16         34.0661   -21.1368   -18.8954 H            1 JAI601   0.0000
    40 H17         34.6174   -21.9592   -17.5968 H            1 JAI601   0.0000
    41 H18         36.1614   -20.6322   -19.2287 H            1 JAI601   0.0000
    42 H19         36.9721   -22.2078   -17.6391 H            1 JAI601   0.0000
    43 H20         37.0783   -20.9910   -16.5553 H            1 JAI601   0.0000
    44 HD11        40.8031   -19.4062   -15.0941 H            1 JAI601   0.0000
    45 HD12        41.8388   -19.2661   -16.3489 H            1 JAI601   0.0000
    46 HD13        40.2898   -19.7101   -16.6142 H            1 JAI601   0.0000
    47 HG11        42.2266   -21.3136   -15.1874 H            1 JAI601   0.0000
    48 HG12        40.6777   -21.7575   -15.4528 H            1 JAI601   0.0000
    49 HG21        43.9628   -21.9181   -16.9631 H            1 JAI601   0.0000
    50 HG22        43.4625   -22.3406   -18.4591 H            1 JAI601   0.0000
    51 HG23        43.4468   -20.7719   -18.0055 H            1 JAI601   0.0000
@<TRIPOS>BOND
     1    1    3      ar
     2    1    4      ar
     3    1    6       1
     4    2    6       1
     5    2   19      am
     6    5   14       2
     7    6    7       1
     8    7   22       1
     9    7   23       1
    10    8    9       1
    11    9   10       1
    12   10   11       2
    13   11   12       1
    14   12   13       1
    15   13   14       1
    16   13   17       1
    17   14   15       1
    18   15   16       1
    19   16   17       1
    20   17   18       1
    21   18   19       1
    22   19   20       2
    23   21   22       1
    24    2   24       1
    25   23   51       1
    26    6   25       1
    27    7   26       1
    28    8   27       1
    29    8   28       1
    30    8   29       1
    31    9   30       1
    32    9   31       1
    33   10   32       1
    34   11   33       1
    35   12   34       1
    36   12   35       1
    37   13   36       1
    38   15   37       1
    39   15   38       1
    40   16   39       1
    41   16   40       1
    42   17   41       1
    43   18   42       1
    44   18   43       1
    45   21   44       1
    46   21   45       1
    47   21   46       1
    48   22   47       1
    49   22   48       1
    50   23   49       1
    51   23   50       1
@<TRIPOS>SUBSTRUCTURE
     1 JAI601      1 GROUP             4 A     JAI     0 **** JAI A 601
