@<TRIPOS>MOLECULE
3t4h_MD5_1_ligand
   32    32     1     0     0
SMALL
NO_CHARGES


@<TRIPOS>ATOM
     1 C           -4.1580     1.3920    -0.8140 C.2          1 MD5217   0.0000
     2 N           -3.2520     0.3820     1.1900 N.am         1 MD5217   0.0000
     3 OXT         -4.4760     2.3710    -1.5030 O.co2        1 MD5217   0.0000
     4 CA          -3.7560     1.6610     0.6620 C.3          1 MD5217   0.0000
     5 CB          -2.5490     2.6300     0.6760 C.3          1 MD5217   0.0000
     6 CAA         -2.8990    -1.2870     2.8840 C.2          1 MD5217   0.0000
     7 CAB         -3.4690     0.0420     2.4750 C.2          1 MD5217   0.0000
     8 OAH         -4.0980     0.7110     3.2780 O.2          1 MD5217   0.0000
     9 OAI         -3.0490    -1.6930     4.0630 O.co2        1 MD5217   0.0000
    10 OAJ         -2.3020    -1.9900     2.0410 O.co2        1 MD5217  -1.0000
    11 SAL         -1.6770     2.9870     2.2780 S.3          1 MD5217   0.0000
    12 CAM         -2.7150     4.0820     3.2620 C.3          1 MD5217   0.0000
    13 CAN         -2.2250     4.2980     4.5690 C.ar         1 MD5217   0.0000
    14 CAO         -1.1060     3.6620     5.1100 C.ar         1 MD5217   0.0000
    15 CAP         -0.7140     3.9290     6.4330 C.ar         1 MD5217   0.0000
    16 CAQ         -1.4410     4.8210     7.2370 C.ar         1 MD5217   0.0000
    17 CAR         -2.5620     5.4530     6.6850 C.ar         1 MD5217   0.0000
    18 CAS         -2.9330     5.1740     5.3790 C.ar         1 MD5217   0.0000
    19 NAT         -3.3610     6.3270     7.3040 N.2          1 MD5217   1.0000
    20 OAU         -3.1520     6.6820     8.5050 O.co2        1 MD5217   0.0000
    21 OAV         -4.4630     6.8510     6.5510 O.co2        1 MD5217  -1.0000
    22 O           -4.1060     0.2190    -1.2520 O.co2        1 MD5217  -1.0000
    23 H1          -2.7455    -0.2379     0.5907 H            1 MD5217   0.0000
    24 HA          -4.5226     2.0113     1.2001 H            1 MD5217   0.0000
    25 HB1         -2.8758     3.5062     0.3217 H            1 MD5217   0.0000
    26 HB2         -1.8657     2.2519     0.0514 H            1 MD5217   0.0000
    27 HAM1        -3.6274     3.6781     3.3286 H            1 MD5217   0.0000
    28 HAM2        -2.7746     4.9649     2.7963 H            1 MD5217   0.0000
    29 HAO         -0.5825     3.0154     4.5552 H            1 MD5217   0.0000
    30 HAP          0.0954     3.4765     6.8074 H            1 MD5217   0.0000
    31 HAQ         -1.1650     5.0008     8.1812 H            1 MD5217   0.0000
    32 HAS         -3.7447     5.6227     5.0051 H            1 MD5217   0.0000
@<TRIPOS>BOND
     1    1    3      ar
     2    1    4       1
     3    1   22      ar
     4    2    4       1
     5    2    7      am
     6    4    5       1
     7    5   11       1
     8    6    7       1
     9    6    9      ar
    10    6   10      ar
    11    7    8       2
    12   11   12       1
    13   12   13       1
    14   13   14      ar
    15   13   18      ar
    16   14   15      ar
    17   15   16      ar
    18   16   17      ar
    19   17   18      ar
    20   17   19       1
    21   19   20      ar
    22   19   21      ar
    23    2   23       1
    24   18   32       1
    25    4   24       1
    26    5   25       1
    27    5   26       1
    28   16   31       1
    29   12   27       1
    30   12   28       1
    31   14   29       1
    32   15   30       1
@<TRIPOS>SUBSTRUCTURE
     1 MD5217      1 GROUP             4 B     MD5     0 **** MD5 B 217
