@<TRIPOS>MOLECULE
1xg5_NAP_3_ligand
   73    77     1     0     0
SMALL
NO_CHARGES


@<TRIPOS>ATOM
     1 PA          22.7370    79.3260   -19.2240 P.3          1 NAP1303   0.0000
     2 O1A         23.8970    79.9860   -18.5630 O.co2        1 NAP1303   0.0000
     3 O2A         23.0220    78.4980   -20.4380 O.co2        1 NAP1303  -1.0000
     4 O5B         21.6800    80.4620   -19.5900 O.3          1 NAP1303   0.0000
     5 C5B         21.3810    81.4850   -18.6400 C.3          1 NAP1303   0.0000
     6 C4B         20.5670    82.5270   -19.3500 C.3          1 NAP1303   0.0000
     7 O4B         20.2210    83.5510   -18.4050 O.3          1 NAP1303   0.0000
     8 C3B         21.3500    83.1910   -20.4590 C.3          1 NAP1303   0.0000
     9 O3B         20.4980    83.3020   -21.5640 O.3          1 NAP1303   0.0000
    10 C2B         21.6030    84.6060   -19.9430 C.3          1 NAP1303   0.0000
    11 O2B         21.6850    85.4750   -21.0500 O.3          1 NAP1303   0.0000
    12 C1B         20.3930    84.8030   -19.0240 C.3          1 NAP1303   0.0000
    13 N9A         20.7770    85.8280   -18.0380 N.pl3        1 NAP1303   0.0000
    14 C8A         21.7370    85.7380   -17.0390 C.2          1 NAP1303   0.0000
    15 N7A         21.8150    86.9550   -16.4390 N.2          1 NAP1303   0.0000
    16 C5A         20.9990    87.8400   -17.0960 C.ar         1 NAP1303   0.0000
    17 C6A         20.7460    89.1970   -16.9580 C.ar         1 NAP1303   0.0000
    18 N6A         21.4190    89.9730   -16.0890 N.pl3        1 NAP1303   0.0000
    19 N1A         19.8280    89.7680   -17.8260 N.ar         1 NAP1303   0.0000
    20 C2A         19.1960    89.0310   -18.8070 C.ar         1 NAP1303   0.0000
    21 N3A         19.4690    87.7000   -18.9500 N.ar         1 NAP1303   0.0000
    22 C4A         20.3470    87.1180   -18.0990 C.ar         1 NAP1303   0.0000
    23 O3          22.0680    78.4340   -18.0980 O.3          1 NAP1303   0.0000
    24 PN          20.7410    77.5470   -18.1210 P.3          1 NAP1303   0.0000
    25 O1N         21.1730    76.2330   -17.5740 O.co2        1 NAP1303   0.0000
    26 O2N         20.0620    77.6410   -19.4560 O.co2        1 NAP1303  -1.0000
    27 O5D         19.9090    78.2860   -16.9810 O.3          1 NAP1303   0.0000
    28 C5D         18.5290    78.5440   -17.1540 C.3          1 NAP1303   0.0000
    29 C4D         17.7920    78.3070   -15.8410 C.3          1 NAP1303   0.0000
    30 O4D         17.8930    76.9020   -15.5520 O.3          1 NAP1303   0.0000
    31 C3D         18.3840    79.0710   -14.6550 C.3          1 NAP1303   0.0000
    32 O3D         17.3590    79.5550   -13.7900 O.3          1 NAP1303   0.0000
    33 C2D         19.1640    77.9910   -13.9150 C.3          1 NAP1303   0.0000
    34 O2D         19.2360    78.2700   -12.5020 O.3          1 NAP1303   0.0000
    35 C1D         18.2320    76.7880   -14.1890 C.3          1 NAP1303   0.0000
    36 N1N         18.8460    75.4600   -13.9760 N.ar         1 NAP1303   1.0000
    37 C2N         19.9390    75.0870   -14.7000 C.ar         1 NAP1303   0.0000
    38 C3N         20.4880    73.8290   -14.4810 C.ar         1 NAP1303   0.0000
    39 C7N         21.6910    73.4060   -15.2530 C.2          1 NAP1303   0.0000
    40 O7N         22.3750    72.3660   -14.7140 O.2          1 NAP1303   0.0000
    41 N7N         22.0680    74.0430   -16.3540 N.am         1 NAP1303   0.0000
    42 C4N         19.8840    72.9030   -13.5690 C.ar         1 NAP1303   0.0000
    43 C5N         18.7560    73.3160   -12.8510 C.ar         1 NAP1303   0.0000
    44 C6N         18.2010    74.5890   -13.0890 C.ar         1 NAP1303   0.0000
    45 P2B         22.6910    86.7330   -21.2370 P.3          1 NAP1303   0.0000
    46 O1X         24.0190    86.3890   -20.5730 O.co2        1 NAP1303   0.0000
    47 O2X         22.7650    86.8770   -22.7450 O.co2        1 NAP1303  -1.0000
    48 O3X         22.0350    87.9330   -20.5410 O.co2        1 NAP1303  -1.0000
    49 H5B1        22.2277    81.8890   -18.2939 H            1 NAP1303   0.0000
    50 H5B2        20.8583    81.1026   -17.8780 H            1 NAP1303   0.0000
    51 H4B         19.7359    82.1134   -19.7218 H            1 NAP1303   0.0000
    52 H3B         22.1966    82.7046   -20.6750 H            1 NAP1303   0.0000
    53 H5          20.9866    83.7391   -22.3191 H            1 NAP1303   0.0000
    54 H2B         22.4506    84.6366   -19.4133 H            1 NAP1303   0.0000
    55 H1B         19.5798    85.0739   -19.5390 H            1 NAP1303   0.0000
    56 H8A         22.2726    84.9268   -16.8041 H            1 NAP1303   0.0000
    57 H6A1        21.2060    90.9476   -16.0202 H            1 NAP1303   0.0000
    58 H6A2        22.1322    89.5751   -15.5120 H            1 NAP1303   0.0000
    59 H2A         18.5362    89.4726   -19.4150 H            1 NAP1303   0.0000
    60 H5D1        18.1623    77.9331   -17.8557 H            1 NAP1303   0.0000
    61 H5D2        18.4019    79.4939   -17.4395 H            1 NAP1303   0.0000
    62 H4D         16.8296    78.5559   -15.9501 H            1 NAP1303   0.0000
    63 H3D         18.9840    79.8107   -14.9599 H            1 NAP1303   0.0000
    64 H16         16.5730    78.9379   -13.8266 H            1 NAP1303   0.0000
    65 H2D         20.0717    77.8533   -14.3114 H            1 NAP1303   0.0000
    66 H18         19.7524    77.5457   -12.0451 H            1 NAP1303   0.0000
    67 H1D         17.4066    76.8693   -13.6303 H            1 NAP1303   0.0000
    68 H2N         20.3383    75.7066   -15.3758 H            1 NAP1303   0.0000
    69 H7N1        22.8790    73.7397   -16.8543 H            1 NAP1303   0.0000
    70 H7N2        21.5411    74.8264   -16.6836 H            1 NAP1303   0.0000
    71 H4N         20.2595    71.9840   -13.4486 H            1 NAP1303   0.0000
    72 H5N         18.3449    72.7092   -12.1707 H            1 NAP1303   0.0000
    73 H6N         17.3571    74.8671   -12.6303 H            1 NAP1303   0.0000
@<TRIPOS>BOND
     1    1    2      ar
     2    1    3      ar
     3    1    4       1
     4    1   23       1
     5    4    5       1
     6    5    6       1
     7    6    7       1
     8    6    8       1
     9    7   12       1
    10    8    9       1
    11    8   10       1
    12   10   11       1
    13   10   12       1
    14   11   45       1
    15   12   13       1
    16   13   14       1
    17   13   22       1
    18   14   15       2
    19   15   16       1
    20   16   17      ar
    21   16   22      ar
    22   17   18       1
    23   17   19      ar
    24   19   20      ar
    25   20   21      ar
    26   21   22      ar
    27   23   24       1
    28   24   25      ar
    29   24   26      ar
    30   24   27       1
    31   27   28       1
    32   28   29       1
    33   29   30       1
    34   29   31       1
    35   30   35       1
    36   31   32       1
    37   31   33       1
    38   33   34       1
    39   33   35       1
    40   35   36       1
    41   36   37      ar
    42   36   44      ar
    43   37   38      ar
    44   38   39       1
    45   38   42      ar
    46   39   40       2
    47   39   41      am
    48   42   43      ar
    49   43   44      ar
    50   45   46      ar
    51   45   47      ar
    52   45   48      ar
    53   43   72       1
    54    5   49       1
    55    5   50       1
    56    6   51       1
    57    8   52       1
    58    9   53       1
    59   10   54       1
    60   12   55       1
    61   14   56       1
    62   18   57       1
    63   18   58       1
    64   20   59       1
    65   44   73       1
    66   28   60       1
    67   28   61       1
    68   29   62       1
    69   31   63       1
    70   32   64       1
    71   33   65       1
    72   34   66       1
    73   35   67       1
    74   37   68       1
    75   41   69       1
    76   41   70       1
    77   42   71       1
@<TRIPOS>SUBSTRUCTURE
     1 NAP1303     1 GROUP             4 C     NAP     0 **** NAP C1303
