@<TRIPOS>MOLECULE
3cl2_G39_8_ligand
   44    44     1     0     0
SMALL
NO_CHARGES


@<TRIPOS>ATOM
     1 C1        -176.6570    -9.0920    44.7510 C.2          1 G39808   0.0000
     2 O1A       -176.6980    -8.5990    43.6690 O.co2        1 G39808   0.0000
     3 O1B       -177.1150   -10.1730    44.9400 O.co2        1 G39808  -1.0000
     4 C2        -175.8340    -8.3870    45.8310 C.2          1 G39808   0.0000
     5 C3        -175.8500    -8.8850    47.3000 C.3          1 G39808   0.0000
     6 C4        -174.4820    -8.6330    47.9360 C.3          1 G39808   0.0000
     7 C5        -174.1150    -7.1560    47.8020 C.3          1 G39808   0.0000
     8 N5        -172.8510    -6.9420    48.4950 N.am         1 G39808   0.0000
     9 C10       -172.8660    -6.1110    49.6830 C.2          1 G39808   0.0000
    10 O10       -173.8800    -5.5960    50.0090 O.2          1 G39808   0.0000
    11 C11       -171.5450    -5.7800    50.3970 C.3          1 G39808   0.0000
    12 C6        -173.9180    -6.7740    46.3400 C.3          1 G39808   0.0000
    13 C7        -175.0840    -7.3130    45.4630 C.2          1 G39808   0.0000
    14 O7        -173.8790    -5.3670    46.2030 O.3          1 G39808   0.0000
    15 C8        -172.6640    -4.7640    45.8520 C.3          1 G39808   0.0000
    16 C9        -172.1140    -5.2430    44.4890 C.3          1 G39808   0.0000
    17 C81       -172.7340    -3.2310    45.9870 C.3          1 G39808   0.0000
    18 C82       -172.8510    -2.8960    47.4940 C.3          1 G39808   0.0000
    19 C91       -173.0110    -4.7770    43.3410 C.3          1 G39808   0.0000
    20 N4        -174.4800    -9.0240    49.3650 N.4          1 G39808   1.0000
    21 H1        -176.0512    -9.8644    47.3182 H            1 G39808   0.0000
    22 H2        -176.5524    -8.3908    47.8123 H            1 G39808   0.0000
    23 H3        -173.7977    -9.1790    47.4527 H            1 G39808   0.0000
    24 H4        -174.8293    -6.5878    48.2105 H            1 G39808   0.0000
    25 H5        -172.0026    -7.3541    48.1626 H            1 G39808   0.0000
    26 H6        -171.7312    -5.2020    51.1915 H            1 G39808   0.0000
    27 H7        -171.1067    -6.6274    50.6967 H            1 G39808   0.0000
    28 H8        -170.9380    -5.2954    49.7672 H            1 G39808   0.0000
    29 H9        -173.0554    -7.1600    46.0130 H            1 G39808   0.0000
    30 H10       -175.2896    -6.8542    44.5986 H            1 G39808   0.0000
    31 H11       -172.0009    -5.0681    46.5359 H            1 G39808   0.0000
    32 H12       -172.0720    -6.2421    44.4863 H            1 G39808   0.0000
    33 H13       -171.1953    -4.8704    44.3580 H            1 G39808   0.0000
    34 H14       -173.5332    -2.8821    45.4975 H            1 G39808   0.0000
    35 H15       -171.9053    -2.8177    45.6096 H            1 G39808   0.0000
    36 H16       -172.8984    -1.9042    47.6123 H            1 G39808   0.0000
    37 H17       -173.6790    -3.3160    47.8655 H            1 G39808   0.0000
    38 H18       -172.0511    -3.2515    47.9776 H            1 G39808   0.0000
    39 H19       -172.6347    -5.0988    42.4722 H            1 G39808   0.0000
    40 H20       -173.9308    -5.1496    43.4643 H            1 G39808   0.0000
    41 H21       -173.0540    -3.7779    43.3360 H            1 G39808   0.0000
    42 H22       -173.5766    -8.8499    49.7570 H            1 G39808   0.0000
    43 H23       -175.1660    -8.4889    49.8580 H            1 G39808   0.0000
    44 H24       -174.6960    -9.9971    49.4446 H            1 G39808   0.0000
@<TRIPOS>BOND
     1    1    2      ar
     2    1    3      ar
     3    1    4       1
     4    4    5       1
     5    4   13       2
     6    5    6       1
     7    6    7       1
     8    6   20       1
     9    7    8       1
    10    7   12       1
    11    8    9      am
    12    9   10       2
    13    9   11       1
    14   12   13       1
    15   12   14       1
    16   14   15       1
    17   15   16       1
    18   15   17       1
    19   16   19       1
    20   17   18       1
    21   20   43       1
    22    5   21       1
    23    5   22       1
    24    6   23       1
    25    7   24       1
    26    8   25       1
    27   11   26       1
    28   11   27       1
    29   11   28       1
    30   12   29       1
    31   13   30       1
    32   15   31       1
    33   16   32       1
    34   16   33       1
    35   17   34       1
    36   17   35       1
    37   18   36       1
    38   18   37       1
    39   18   38       1
    40   19   39       1
    41   19   40       1
    42   19   41       1
    43   20   42       1
    44   20   44       1
@<TRIPOS>SUBSTRUCTURE
     1 G39808      1 GROUP             4 H     G39     0 **** G39 H 808
