@<TRIPOS>MOLECULE
1nav_IH5_1_ligand
   38    39     1     0     0
SMALL
NO_CHARGES


@<TRIPOS>ATOM
     1 O3          44.6210    13.4550    17.6070 O.co2        1 IH5600   0.0000
     2 C15         43.8740    14.4540    18.1410 C.2          1 IH5600   0.0000
     3 O4          42.7640    14.8300    17.7390 O.co2        1 IH5600  -1.0000
     4 C13         44.4900    15.0760    19.3010 C.3          1 IH5600   0.0000
     5 C01         45.7960    15.7930    19.2060 C.ar         1 IH5600   0.0000
     6 C11         46.7550    15.4270    20.1980 C.ar         1 IH5600   0.0000
     7 C09         48.0330    16.0490    20.2240 C.ar         1 IH5600   0.0000
     8 C07         48.3870    17.0690    19.2560 C.ar         1 IH5600   0.0000
     9 O2          49.5690    17.7330    19.2050 O.3          1 IH5600   0.0000
    10 C2          49.7420    18.9740    19.9740 C.ar         1 IH5600   0.0000
    11 C12         49.0350    19.2610    21.2370 C.ar         1 IH5600   0.0000
    12 C10         49.2750    20.4960    21.9270 C.ar         1 IH5600   0.0000
    13 C8          50.2030    21.4660    21.4150 C.ar         1 IH5600   0.0000
    14 O1          50.4060    22.6440    22.1190 O.3          1 IH5600   0.0000
    15 C6          50.9200    21.2220    20.1640 C.ar         1 IH5600   0.0000
    16 C4          50.6760    19.9660    19.4610 C.ar         1 IH5600   0.0000
    17 C14         51.9350    22.2960    19.6090 C.3          1 IH5600   0.0000
    18 C16         51.1840    23.1260    18.5450 C.3          1 IH5600   0.0000
    19 C18         53.2190    21.6470    18.9470 C.3          1 IH5600   0.0000
    20 C05         47.4300    17.4280    18.2780 C.ar         1 IH5600   0.0000
    21 C03         46.1400    16.8120    18.2200 C.ar         1 IH5600   0.0000
    22 CL5         47.7790    18.6250    17.1200 Cl           1 IH5600   0.0000
    23 CL6         49.1380    15.5690    21.3860 Cl           1 IH5600   0.0000
    24 H1          44.6168    14.3490    19.9758 H            1 IH5600   0.0000
    25 H2          43.8287    15.7411    19.6479 H            1 IH5600   0.0000
    26 H3          46.5268    14.7299    20.8777 H            1 IH5600   0.0000
    27 H4          48.3894    18.5956    21.6116 H            1 IH5600   0.0000
    28 H5          48.7876    20.6849    22.7795 H            1 IH5600   0.0000
    29 H6          51.0489    23.3280    21.7744 H            1 IH5600   0.0000
    30 H7          51.1621    19.7826    18.6065 H            1 IH5600   0.0000
    31 H8          52.2184    22.8976    20.3558 H            1 IH5600   0.0000
    32 H9          51.7981    23.8200    18.1691 H            1 IH5600   0.0000
    33 H10         50.8729    22.5230    17.8104 H            1 IH5600   0.0000
    34 H11         50.3947    23.5724    18.9665 H            1 IH5600   0.0000
    35 H12         53.8242    22.3702    18.6144 H            1 IH5600   0.0000
    36 H13         53.7016    21.0949    19.6269 H            1 IH5600   0.0000
    37 H14         52.9419    21.0660    18.1817 H            1 IH5600   0.0000
    38 H15         45.4833    17.0761    17.5136 H            1 IH5600   0.0000
@<TRIPOS>BOND
     1    1    2      ar
     2    2    3      ar
     3    2    4       1
     4    4    5       1
     5    5    6      ar
     6    5   21      ar
     7    6    7      ar
     8    7    8      ar
     9    7   23       1
    10    8    9       1
    11    8   20      ar
    12    9   10       1
    13   10   11      ar
    14   10   16      ar
    15   11   12      ar
    16   12   13      ar
    17   13   14       1
    18   13   15      ar
    19   15   16      ar
    20   15   17       1
    21   17   18       1
    22   17   19       1
    23   20   21      ar
    24   20   22       1
    25   21   38       1
    26    4   24       1
    27    4   25       1
    28    6   26       1
    29   11   27       1
    30   12   28       1
    31   14   29       1
    32   16   30       1
    33   17   31       1
    34   18   32       1
    35   18   33       1
    36   18   34       1
    37   19   35       1
    38   19   36       1
    39   19   37       1
@<TRIPOS>SUBSTRUCTURE
     1 IH5600      1 GROUP             4 A     IH5     0 **** IH5 A 600
