@<TRIPOS>MOLECULE
3lij_ANP_1_ligand
   44    46     1     0     0
SMALL
NO_CHARGES


@<TRIPOS>ATOM
     1 PG          -1.3950     5.6810    30.7440 P.3          1 ANP522   0.0000
     2 O1G         -1.2250     5.5680    29.1480 O.co2        1 ANP522   0.0000
     3 O2G         -1.1370     4.4020    31.4440 O.co2        1 ANP522  -1.0000
     4 O3G         -2.8950     6.2160    30.9770 O.co2        1 ANP522  -1.0000
     5 PB           1.1570     6.5850    31.0140 P.3          1 ANP522   0.0000
     6 O1B          2.0080     7.6520    31.5910 O.co2        1 ANP522   0.0000
     7 O2B          1.4640     5.1480    31.6820 O.co2        1 ANP522  -1.0000
     8 N3B         -0.4280     6.8950    31.2360 N.3          1 ANP522   0.0000
     9 PA           2.2780     7.4060    28.5650 P.3          1 ANP522   0.0000
    10 O1A          3.4640     7.8860    29.3090 O.co2        1 ANP522   0.0000
    11 O2A          2.6680     6.6350    27.2070 O.co2        1 ANP522  -1.0000
    12 O3A          1.3690     6.3830    29.4230 O.3          1 ANP522   0.0000
    13 O5'          1.2960     8.6010    28.1210 O.3          1 ANP522   0.0000
    14 C5'          1.2350     9.7980    28.9040 C.3          1 ANP522   0.0000
    15 C4'          0.1920    10.7750    28.3520 C.3          1 ANP522   0.0000
    16 O4'          0.4590    11.0220    26.9410 O.3          1 ANP522   0.0000
    17 C3'         -1.1840    10.1020    28.4290 C.3          1 ANP522   0.0000
    18 O3'         -2.1320    11.0450    28.9410 O.3          1 ANP522   0.0000
    19 C2'         -1.4800     9.7800    26.9700 C.3          1 ANP522   0.0000
    20 O2'         -2.8930     9.7620    26.7300 O.3          1 ANP522   0.0000
    21 C1'         -0.8110    10.9660    26.2770 C.3          1 ANP522   0.0000
    22 N9          -0.5840    10.7000    24.8450 N.pl3        1 ANP522   0.0000
    23 C8           0.2010     9.7490    24.3310 C.2          1 ANP522   0.0000
    24 N7           0.1570     9.8090    22.9980 N.2          1 ANP522   0.0000
    25 C5          -0.6580    10.8040    22.6580 C.ar         1 ANP522   0.0000
    26 C6          -1.0990    11.3240    21.4430 C.ar         1 ANP522   0.0000
    27 N6          -0.6760    10.8170    20.2880 N.pl3        1 ANP522   0.0000
    28 N1          -1.9560    12.3630    21.4520 N.ar         1 ANP522   0.0000
    29 C2          -2.3770    12.8880    22.5990 C.ar         1 ANP522   0.0000
    30 N3          -1.9930    12.4000    23.7750 N.ar         1 ANP522   0.0000
    31 C4          -1.1320    11.3700    23.8350 C.ar         1 ANP522   0.0000
    32 H3B         -0.6657     7.7189    30.7215 H            1 ANP522   0.0000
    33 H5'1         2.1321    10.2397    28.8934 H            1 ANP522   0.0000
    34 H5'2         0.9919     9.5596    29.8442 H            1 ANP522   0.0000
    35 H4'          0.1981    11.6306    28.8695 H            1 ANP522   0.0000
    36 H3'         -1.1548     9.2731    28.9876 H            1 ANP522   0.0000
    37 H6          -2.5292    10.6919    29.7881 H            1 ANP522   0.0000
    38 H2'         -1.0562     8.9162    26.6975 H            1 ANP522   0.0000
    39 H8          -3.3690     9.4789    27.5626 H            1 ANP522   0.0000
    40 H1'         -1.3313    11.8090    26.4134 H            1 ANP522   0.0000
    41 H10          0.7382     9.0939    24.8623 H            1 ANP522   0.0000
    42 H11         -1.0017    11.2012    19.4241 H            1 ANP522   0.0000
    43 H12         -0.0323    10.0517    20.2837 H            1 ANP522   0.0000
    44 H13         -2.9990    13.6707    22.5766 H            1 ANP522   0.0000
@<TRIPOS>BOND
     1    1    2      ar
     2    1    3      ar
     3    1    4      ar
     4    1    8       1
     5    5    6      ar
     6    5    7      ar
     7    5    8       1
     8    5   12       1
     9    9   10      ar
    10    9   11      ar
    11    9   12       1
    12    9   13       1
    13   13   14       1
    14   14   15       1
    15   15   16       1
    16   15   17       1
    17   16   21       1
    18   17   18       1
    19   17   19       1
    20   19   20       1
    21   19   21       1
    22   21   22       1
    23   22   23       1
    24   22   31       1
    25   23   24       2
    26   24   25       1
    27   25   26      ar
    28   25   31      ar
    29   26   27       1
    30   26   28      ar
    31   28   29      ar
    32   29   30      ar
    33   30   31      ar
    34   29   44       1
    35   27   43       1
    36   27   42       1
    37    8   32       1
    38   23   41       1
    39   14   33       1
    40   14   34       1
    41   15   35       1
    42   17   36       1
    43   18   37       1
    44   19   38       1
    45   20   39       1
    46   21   40       1
@<TRIPOS>SUBSTRUCTURE
     1 ANP522      1 GROUP             4 A     ANP     0 **** ANP A 522
