@<TRIPOS>MOLECULE
1zny_GDP_1_ligand
   41    43     1     0     0
SMALL
NO_CHARGES


@<TRIPOS>ATOM
     1 PB          28.1470     9.2470    34.4000 P.3          1 GDP300   0.0000
     2 O1B         27.5380    10.5600    34.1030 O.co2        1 GDP300   0.0000
     3 O2B         27.4440     8.0760    33.6900 O.co2        1 GDP300  -1.0000
     4 O3B         28.0390     8.9720    35.9190 O.co2        1 GDP300  -1.0000
     5 O3A         29.7010     9.3270    33.9640 O.3          1 GDP300   0.0000
     6 PA          30.1750     9.5350    32.4270 P.3          1 GDP300   0.0000
     7 O1A         31.1490     8.4160    32.2830 O.co2        1 GDP300   0.0000
     8 O2A         30.7970    10.9560    32.3040 O.co2        1 GDP300  -1.0000
     9 O5'         28.8040     9.3910    31.5020 O.3          1 GDP300   0.0000
    10 C5'         28.0450    10.5400    31.0800 C.3          1 GDP300   0.0000
    11 C4'         26.5150    10.4340    30.7540 C.3          1 GDP300   0.0000
    12 O4'         26.0500     9.2050    30.1840 O.3          1 GDP300   0.0000
    13 C3'         25.5710    10.7240    31.9350 C.3          1 GDP300   0.0000
    14 O3'         24.7610    11.8320    31.6660 O.3          1 GDP300   0.0000
    15 C2'         24.6800     9.5040    32.0920 C.3          1 GDP300   0.0000
    16 O2'         23.3450     9.8130    32.4410 O.3          1 GDP300   0.0000
    17 C1'         24.7820     8.8490    30.7260 C.3          1 GDP300   0.0000
    18 N9          24.6570     7.4000    30.9250 N.pl3        1 GDP300   0.0000
    19 C8          25.5870     6.5570    31.5090 C.2          1 GDP300   0.0000
    20 N7          25.0850     5.3110    31.4840 N.2          1 GDP300   1.0000
    21 C5          23.8500     5.3430    30.9370 C.2          1 GDP300   0.0000
    22 C6          22.9080     4.3560    30.6830 C.2          1 GDP300   0.0000
    23 O6          23.1110     3.1890    31.0180 O.2          1 GDP300   0.0000
    24 N1          21.7190     4.7080    30.0740 N.pl3        1 GDP300   0.0000
    25 C2          21.4510     6.0180    29.7030 C.2          1 GDP300   0.0000
    26 N2          20.1970     6.3670    29.4770 N.pl3        1 GDP300   0.0000
    27 N3          22.3860     6.9980    29.9610 N.2          1 GDP300   0.0000
    28 C4          23.5660     6.6590    30.5650 C.2          1 GDP300   0.0000
    29 H5'1        28.4875    10.8819    30.2509 H            1 GDP300   0.0000
    30 H5'2        28.1322    11.2193    31.8087 H            1 GDP300   0.0000
    31 H4'         26.3289    11.1416    30.0724 H            1 GDP300   0.0000
    32 H3'         26.0991    10.8764    32.7704 H            1 GDP300   0.0000
    33 H5          23.8000    11.5571    31.6944 H            1 GDP300   0.0000
    34 H2'         25.0706     8.8946    32.7820 H            1 GDP300   0.0000
    35 H7          23.1216     9.3844    33.3164 H            1 GDP300   0.0000
    36 H1'         24.0490     9.1788    30.1310 H            1 GDP300   0.0000
    37 H9          26.4742     6.8273    31.8828 H            1 GDP300   0.0000
    38 H10         21.0344     4.0011    29.8961 H            1 GDP300   0.0000
    39 H11         19.9798     7.3055    29.2085 H            1 GDP300   0.0000
    40 H12         19.4650     5.6927    29.5744 H            1 GDP300   0.0000
    41 H13         25.5509     4.4912    31.8169 H            1 GDP300   0.0000
@<TRIPOS>BOND
     1    1    2      ar
     2    1    3      ar
     3    1    4      ar
     4    1    5       1
     5    5    6       1
     6    6    7      ar
     7    6    8      ar
     8    6    9       1
     9    9   10       1
    10   10   11       1
    11   11   12       1
    12   11   13       1
    13   12   17       1
    14   13   14       1
    15   13   15       1
    16   15   16       1
    17   15   17       1
    18   17   18       1
    19   18   19       1
    20   18   28       1
    21   19   20       2
    22   20   21       1
    23   21   22       1
    24   21   28       2
    25   22   23       2
    26   22   24       1
    27   24   25       1
    28   25   26       1
    29   25   27       2
    30   27   28       1
    31   26   40       1
    32   26   39       1
    33   24   38       1
    34   10   29       1
    35   10   30       1
    36   11   31       1
    37   13   32       1
    38   14   33       1
    39   15   34       1
    40   16   35       1
    41   17   36       1
    42   19   37       1
    43   20   41       1
@<TRIPOS>SUBSTRUCTURE
     1 GDP300      1 GROUP             4 A     GDP     0 **** GDP A 300
