@<TRIPOS>MOLECULE
1hyg_NAP_1_ligand
   73    77     1     0     0
SMALL
NO_CHARGES


@<TRIPOS>ATOM
     1 PA          75.5420    16.9940    37.4660 P.3          1 NAP900   0.0000
     2 O1A         75.3760    17.4190    36.0400 O.co2        1 NAP900   0.0000
     3 O2A         76.0930    17.9190    38.4440 O.co2        1 NAP900  -1.0000
     4 O5B         76.3590    15.6020    37.4430 O.3          1 NAP900   0.0000
     5 C5B         76.7220    14.9860    38.6740 C.3          1 NAP900   0.0000
     6 C4B         77.4060    13.6930    38.3680 C.3          1 NAP900   0.0000
     7 O4B         78.5380    13.8960    37.5020 O.3          1 NAP900   0.0000
     8 C3B         77.8690    13.0020    39.5850 C.3          1 NAP900   0.0000
     9 O3B         77.7330    11.5890    39.4890 O.3          1 NAP900   0.0000
    10 C2B         79.3280    13.3590    39.6150 C.3          1 NAP900   0.0000
    11 O2B         80.1710    12.4240    40.3200 O.3          1 NAP900   0.0000
    12 C1B         79.6690    13.2950    38.1420 C.3          1 NAP900   0.0000
    13 N9A         80.9050    14.0260    37.7360 N.pl3        1 NAP900   0.0000
    14 C8A         81.1390    15.3920    37.6390 C.2          1 NAP900   0.0000
    15 N7A         82.3570    15.6680    37.2500 N.2          1 NAP900   0.0000
    16 C5A         82.9630    14.4360    37.0790 C.ar         1 NAP900   0.0000
    17 C6A         84.2700    14.0550    36.6730 C.ar         1 NAP900   0.0000
    18 N6A         85.1920    14.9630    36.3700 N.pl3        1 NAP900   0.0000
    19 N1A         84.5680    12.7070    36.6010 N.ar         1 NAP900   0.0000
    20 C2A         83.6290    11.7820    36.9100 C.ar         1 NAP900   0.0000
    21 N3A         82.3720    12.0580    37.3020 N.ar         1 NAP900   0.0000
    22 C4A         82.1000    13.4220    37.3650 C.ar         1 NAP900   0.0000
    23 O3          74.0950    16.3550    37.8960 O.3          1 NAP900   0.0000
    24 PN          72.9200    15.5150    37.1340 P.3          1 NAP900   0.0000
    25 O1N         71.7350    16.3820    37.1610 O.co2        1 NAP900   0.0000
    26 O2N         72.8420    14.1790    37.8560 O.co2        1 NAP900  -1.0000
    27 O5D         73.4130    15.1090    35.6530 O.3          1 NAP900   0.0000
    28 C5D         72.5640    14.3320    34.7660 C.3          1 NAP900   0.0000
    29 C4D         73.3550    13.3990    33.8030 C.3          1 NAP900   0.0000
    30 O4D         72.4340    12.9420    32.8180 O.3          1 NAP900   0.0000
    31 C3D         74.4730    14.0890    32.9740 C.3          1 NAP900   0.0000
    32 O3D         75.5280    13.2140    32.5220 O.3          1 NAP900   0.0000
    33 C2D         73.7530    14.6980    31.8030 C.3          1 NAP900   0.0000
    34 O2D         74.5740    14.8190    30.6610 O.3          1 NAP900   0.0000
    35 C1D         72.5770    13.6620    31.5810 C.3          1 NAP900   0.0000
    36 N1N         71.2730    14.3420    31.2700 N.ar         1 NAP900   1.0000
    37 C2N         70.3560    13.5480    30.5270 C.ar         1 NAP900   0.0000
    38 C3N         69.0780    14.1390    30.1920 C.ar         1 NAP900   0.0000
    39 C7N         68.0730    13.3900    29.4230 C.2          1 NAP900   0.0000
    40 O7N         66.9710    13.8720    29.1190 O.2          1 NAP900   0.0000
    41 N7N         68.3220    12.1320    29.0120 N.am         1 NAP900   0.0000
    42 C4N         68.8120    15.4640    30.6200 C.ar         1 NAP900   0.0000
    43 C5N         69.6990    16.2160    31.3330 C.ar         1 NAP900   0.0000
    44 C6N         70.9270    15.6670    31.6630 C.ar         1 NAP900   0.0000
    45 P2B         80.9950    12.8690    41.6130 P.3          1 NAP900   0.0000
    46 O1X         80.0660    13.3140    42.6860 O.co2        1 NAP900   0.0000
    47 O2X         81.7010    11.6010    41.8820 O.co2        1 NAP900  -1.0000
    48 O3X         81.8670    13.9440    41.0770 O.co2        1 NAP900  -1.0000
    49 H5B1        75.9025    14.8139    39.2206 H            1 NAP900   0.0000
    50 H5B2        77.3417    15.5845    39.1818 H            1 NAP900   0.0000
    51 H4B         76.7546    13.0974    37.8980 H            1 NAP900   0.0000
    52 H3B         77.3989    13.3519    40.3953 H            1 NAP900   0.0000
    53 H5          78.2742    11.2537    38.7179 H            1 NAP900   0.0000
    54 H2B         79.4574    14.2859    39.9673 H            1 NAP900   0.0000
    55 H1B         79.7410    12.3385    37.8592 H            1 NAP900   0.0000
    56 H8A         80.4512    16.0883    37.8442 H            1 NAP900   0.0000
    57 H6A1        86.1058    14.6723    36.0865 H            1 NAP900   0.0000
    58 H6A2        84.9719    15.9369    36.4255 H            1 NAP900   0.0000
    59 H2A         83.8899    10.8191    36.8416 H            1 NAP900   0.0000
    60 H5D1        72.0189    14.9647    34.2160 H            1 NAP900   0.0000
    61 H5D2        71.9564    13.7674    35.3246 H            1 NAP900   0.0000
    62 H4D         73.7313    12.6225    34.3085 H            1 NAP900   0.0000
    63 H3D         74.8750    14.8224    33.5223 H            1 NAP900   0.0000
    64 H16         75.6430    12.4655    33.1751 H            1 NAP900   0.0000
    65 H2D         73.3810    15.5914    32.0551 H            1 NAP900   0.0000
    66 H18         75.5240    14.9478    30.9455 H            1 NAP900   0.0000
    67 H1D         72.8152    13.0292    30.8443 H            1 NAP900   0.0000
    68 H2N         70.5858    12.6161    30.2465 H            1 NAP900   0.0000
    69 H7N1        67.6321    11.6309    28.4896 H            1 NAP900   0.0000
    70 H7N2        69.1968    11.6989    29.2292 H            1 NAP900   0.0000
    71 H4N         67.9277    15.8686    30.3870 H            1 NAP900   0.0000
    72 H5N         69.4667    17.1476    31.6126 H            1 NAP900   0.0000
    73 H6N         71.5828    16.2106    32.1868 H            1 NAP900   0.0000
@<TRIPOS>BOND
     1    1    2      ar
     2    1    3      ar
     3    1    4       1
     4    1   23       1
     5    4    5       1
     6    5    6       1
     7    6    7       1
     8    6    8       1
     9    7   12       1
    10    8    9       1
    11    8   10       1
    12   10   11       1
    13   10   12       1
    14   11   45       1
    15   12   13       1
    16   13   14       1
    17   13   22       1
    18   14   15       2
    19   15   16       1
    20   16   17      ar
    21   16   22      ar
    22   17   18       1
    23   17   19      ar
    24   19   20      ar
    25   20   21      ar
    26   21   22      ar
    27   23   24       1
    28   24   25      ar
    29   24   26      ar
    30   24   27       1
    31   27   28       1
    32   28   29       1
    33   29   30       1
    34   29   31       1
    35   30   35       1
    36   31   32       1
    37   31   33       1
    38   33   34       1
    39   33   35       1
    40   35   36       1
    41   36   37      ar
    42   36   44      ar
    43   37   38      ar
    44   38   39       1
    45   38   42      ar
    46   39   40       2
    47   39   41      am
    48   42   43      ar
    49   43   44      ar
    50   45   46      ar
    51   45   47      ar
    52   45   48      ar
    53   43   72       1
    54    5   49       1
    55    5   50       1
    56    6   51       1
    57    8   52       1
    58    9   53       1
    59   10   54       1
    60   12   55       1
    61   14   56       1
    62   18   57       1
    63   18   58       1
    64   20   59       1
    65   44   73       1
    66   28   60       1
    67   28   61       1
    68   29   62       1
    69   31   63       1
    70   32   64       1
    71   33   65       1
    72   34   66       1
    73   35   67       1
    74   37   68       1
    75   41   69       1
    76   41   70       1
    77   42   71       1
@<TRIPOS>SUBSTRUCTURE
     1 NAP900      1 GROUP             4 A     NAP     0 **** NAP A 900
