@<TRIPOS>MOLECULE
./coach420/1wq1/ligand.pdb
 32 34 0 0 0
SMALL
GASTEIGER

@<TRIPOS>ATOM
      1  PB       -16.8680   21.1430   19.2550 P.3   167  GDP167      0.1948
      2  O1B      -16.0400   20.9200   20.4290 O.3   167  GDP167     -0.4387
      3  O2B      -16.2130   21.1360   17.9680 O.2   167  GDP167     -0.5185
      4  O3B      -18.0370   20.0550   19.2530 O.3   167  GDP167     -0.3665
      5  O3A      -17.6770   22.5130   19.4220 O.3   167  GDP167     -0.2722
      6  PA       -17.3880   23.8800   18.6320 P.3   167  GDP167      0.2189
      7  O1A      -15.9850   24.2340   18.8230 O.3   167  GDP167     -0.4371
      8  O2A      -17.8550   23.7130   17.2670 O.2   167  GDP167     -0.5170
      9  O5'      -18.3280   24.9410   19.3960 O.3   167  GDP167     -0.3112
     10  C5'      -19.6710   24.6220   19.6820 C.3   167  GDP167      0.1813
     11  C4'      -20.4960   25.8540   20.0870 C.3   167  GDP167      0.1801
     12  O4'      -20.0100   26.5440   21.2610 O.3   167  GDP167     -0.3306
     13  C3'      -20.4810   26.9320   18.9960 C.3   167  GDP167      0.2161
     14  O3'      -21.7370   27.6630   18.9400 O.3   167  GDP167     -0.2175
     15  C2'      -19.3240   27.8040   19.4580 C.3   167  GDP167      0.2337
     16  O2'      -19.3260   29.1060   18.8590 O.3   167  GDP167     -0.2155
     17  C1'      -19.5700   27.8730   20.9370 C.3   167  GDP167      0.2409
     18  N9       -18.3420   28.1760   21.6750 N.ar  167  GDP167     -0.2693
     19  C8       -17.1510   27.5920   21.6000 C.ar  167  GDP167      0.1817
     20  N7       -16.2410   28.0570   22.3880 N.ar  167  GDP167     -0.2173
     21  C5       -16.8840   29.0150   23.1090 C.ar  167  GDP167      0.1748
     22  C6       -16.4140   29.8660   24.1590 C.ar  167  GDP167      0.3023
     23  O6       -15.3240   29.9090   24.7660 O.2   167  GDP167     -0.2633
     24  N1       -17.4070   30.7110   24.5630 N.ar  167  GDP167     -0.1709
     25  C2       -18.6790   30.7440   24.0900 C.ar  167  GDP167      0.2606
     26  N2       -19.4860   31.6640   24.5970 N.pl3 167  GDP167     -0.0859
     27  N3       -19.1290   29.9280   23.1390 N.ar  167  GDP167     -0.1918
     28  C4       -18.1810   29.1020   22.6790 C.ar  167  GDP167      0.1723
     29 AL        -18.3540   18.1610   18.0040 Al    169  AF3169      1.2155
     30  F1       -17.5600   17.2980   19.1720 F     169  AF3169     -0.3165
     31  F2       -17.4670   19.1090   16.9150 F     169  AF3169     -0.3165
     32  F3       -20.0030   18.0820   17.9090 F     169  AF3169     -0.3165
@<TRIPOS>BOND
     1     1     3    2
     2     1     4    1
     3     1     5    1
     4     1     2    1
     5     4    29    1
     6     5     6    1
     7     6     8    2
     8     6     7    1
     9     6     9    1
    10     9    10    1
    11    10    11    1
    12    11    13    1
    13    11    12    1
    14    12    17    1
    15    13    14    1
    16    13    15    1
    17    15    16    1
    18    15    17    1
    19    17    18    1
    20    18    19   ar
    21    18    28   ar
    22    19    20   ar
    23    20    21   ar
    24    21    28   ar
    25    21    22   ar
    26    22    24   ar
    27    22    23    2
    28    24    25   ar
    29    25    27   ar
    30    25    26    1
    31    27    28   ar
    32    29    31    1
    33    29    32    1
    34    29    30    1
