@<TRIPOS>MOLECULE
1l0o_ADP_2_ligand
   39    41     1     0     0
SMALL
NO_CHARGES


@<TRIPOS>ATOM
     1 PB          47.0080    15.9160    56.9760 P.3          1 ADP701   0.0000
     2 O1B         45.4940    16.1720    57.2360 O.co2        1 ADP701   0.0000
     3 O2B         47.4390    16.0720    55.5590 O.co2        1 ADP701  -1.0000
     4 O3B         47.8930    16.7750    58.0090 O.co2        1 ADP701  -1.0000
     5 PA          46.5410    13.1030    56.9450 P.3          1 ADP701   0.0000
     6 O1A         45.0570    13.3920    57.2540 O.co2        1 ADP701   0.0000
     7 O2A         47.1620    11.8730    57.5280 O.co2        1 ADP701  -1.0000
     8 O3A         47.3440    14.4340    57.3780 O.3          1 ADP701   0.0000
     9 O5'         46.7310    13.1640    55.3240 O.3          1 ADP701   0.0000
    10 C5'         48.0510    12.9210    54.7250 C.3          1 ADP701   0.0000
    11 C4'         48.1230    13.2540    53.2270 C.3          1 ADP701   0.0000
    12 O4'         47.2610    12.2810    52.4680 O.3          1 ADP701   0.0000
    13 C3'         47.5350    14.5890    52.7920 C.3          1 ADP701   0.0000
    14 O3'         48.4680    15.6650    52.9660 O.3          1 ADP701   0.0000
    15 C2'         47.1810    14.3810    51.2790 C.3          1 ADP701   0.0000
    16 O2'         48.3560    14.5380    50.4100 O.3          1 ADP701   0.0000
    17 C1'         46.6700    12.9260    51.2770 C.3          1 ADP701   0.0000
    18 N9          45.1070    12.9220    51.3570 N.pl3        1 ADP701   0.0000
    19 C8          44.3620    12.4780    52.3590 C.2          1 ADP701   0.0000
    20 N7          43.0980    12.6010    52.1640 N.2          1 ADP701   0.0000
    21 C5          42.9800    13.1910    50.9060 C.ar         1 ADP701   0.0000
    22 C6          41.8500    13.6050    50.0660 C.ar         1 ADP701   0.0000
    23 N6          40.5340    13.4440    50.4720 N.pl3        1 ADP701   0.0000
    24 N1          42.1260    14.1740    48.8250 N.ar         1 ADP701   0.0000
    25 C2          43.4120    14.3240    48.4350 C.ar         1 ADP701   0.0000
    26 N3          44.5240    13.9670    49.1470 N.ar         1 ADP701   0.0000
    27 C4          44.2380    13.4040    50.3830 C.ar         1 ADP701   0.0000
    28 H5'1        48.2783    11.9545    54.8444 H            1 ADP701   0.0000
    29 H5'2        48.7237    13.4835    55.2057 H            1 ADP701   0.0000
    30 H4'         49.0692    13.1835    52.9112 H            1 ADP701   0.0000
    31 H3'         46.7015    14.7768    53.3116 H            1 ADP701   0.0000
    32 H5          48.3591    16.0561    53.8799 H            1 ADP701   0.0000
    33 H2'         46.4534    15.0079    51.0004 H            1 ADP701   0.0000
    34 H7          48.0664    14.8817    49.5167 H            1 ADP701   0.0000
    35 H1'         46.9724    12.4571    50.4471 H            1 ADP701   0.0000
    36 H9          44.7489    12.0827    53.1921 H            1 ADP701   0.0000
    37 H10         39.7872    13.7370    49.8750 H            1 ADP701   0.0000
    38 H11         40.3317    13.0349    51.3618 H            1 ADP701   0.0000
    39 H12         43.5653    14.7368    47.5372 H            1 ADP701   0.0000
@<TRIPOS>BOND
     1    1    2      ar
     2    1    3      ar
     3    1    4      ar
     4    1    8       1
     5    5    6      ar
     6    5    7      ar
     7    5    8       1
     8    5    9       1
     9    9   10       1
    10   10   11       1
    11   11   12       1
    12   11   13       1
    13   12   17       1
    14   13   14       1
    15   13   15       1
    16   15   16       1
    17   15   17       1
    18   17   18       1
    19   18   19       1
    20   18   27       1
    21   19   20       2
    22   20   21       1
    23   21   22      ar
    24   21   27      ar
    25   22   23       1
    26   22   24      ar
    27   24   25      ar
    28   25   26      ar
    29   26   27      ar
    30   25   39       1
    31   23   38       1
    32   23   37       1
    33   10   28       1
    34   10   29       1
    35   11   30       1
    36   13   31       1
    37   14   32       1
    38   15   33       1
    39   16   34       1
    40   17   35       1
    41   19   36       1
@<TRIPOS>SUBSTRUCTURE
     1 ADP701      1 GROUP             4 B     ADP     0 **** ADP B 701
