@<TRIPOS>MOLECULE
4obu_PLP_2_ligand
   26    26     1     0     0
SMALL
NO_CHARGES


@<TRIPOS>ATOM
     1 N1          23.6780   104.9100    85.5980 N.ar         1 PLP501   1.0000
     2 C2          23.9320   104.6590    84.2680 C.ar         1 PLP501   0.0000
     3 C2A         25.1340   105.2610    83.6010 C.3          1 PLP501   0.0000
     4 C3          23.0750   103.8410    83.5420 C.ar         1 PLP501   0.0000
     5 O3          23.3320   103.6010    82.2180 O.3          1 PLP501   0.0000
     6 C4          21.9470   103.2790    84.1330 C.ar         1 PLP501   0.0000
     7 C4A         20.8130   103.0030    83.1880 C.3          1 PLP501   0.0000
     8 C5          21.6970   103.5380    85.4890 C.ar         1 PLP501   0.0000
     9 C6          22.5720   104.3530    86.2030 C.ar         1 PLP501   0.0000
    10 C5A         20.5170   102.9660    86.2550 C.3          1 PLP501   0.0000
    11 O4P         19.2950   102.9050    85.5570 O.3          1 PLP501   0.0000
    12 P           18.2200   101.7650    85.9230 P.3          1 PLP501   0.0000
    13 O1P         17.6440   102.0520    87.2900 O.co2        1 PLP501   0.0000
    14 O2P         18.9010   100.4160    85.9270 O.co2        1 PLP501  -1.0000
    15 O3P         17.1180   101.7740    84.8940 O.co2        1 PLP501  -1.0000
    16 H2A1        25.1618   104.9752    82.6431 H            1 PLP501   0.0000
    17 H2A2        25.0778   106.2582    83.6498 H            1 PLP501   0.0000
    18 H2A3        25.9634   104.9508    84.0656 H            1 PLP501   0.0000
    19 H4          22.7202   103.0135    81.6884 H            1 PLP501   0.0000
    20 H4A1        20.0484   102.6025    83.6929 H            1 PLP501   0.0000
    21 H4A2        20.5191   103.8582    82.7612 H            1 PLP501   0.0000
    22 H4A3        21.1164   102.3645    82.4807 H            1 PLP501   0.0000
    23 H8          22.3950   104.5369    87.1699 H            1 PLP501   0.0000
    24 H5A1        20.3768   103.5322    87.0673 H            1 PLP501   0.0000
    25 H5A2        20.7560   102.0360    86.5341 H            1 PLP501   0.0000
    26 H11         24.2950   105.4954    86.1239 H            1 PLP501   0.0000
@<TRIPOS>BOND
     1    1    2      ar
     2    1    9      ar
     3    2    3       1
     4    2    4      ar
     5    4    5       1
     6    4    6      ar
     7    6    7       1
     8    6    8      ar
     9    8    9      ar
    10    8   10       1
    11   10   11       1
    12   11   12       1
    13   12   13      ar
    14   12   14      ar
    15   12   15      ar
    16    3   16       1
    17    3   17       1
    18    3   18       1
    19    5   19       1
    20    7   20       1
    21    7   21       1
    22    7   22       1
    23    9   23       1
    24   10   24       1
    25   10   25       1
    26    1   26       1
@<TRIPOS>SUBSTRUCTURE
     1 PLP501      1 GROUP             4 B     PLP     0 **** PLP B 501
