@<TRIPOS>MOLECULE
3q8i_IND_1_ligand
   16    17     1     0     0
SMALL
NO_CHARGES


@<TRIPOS>ATOM
     1 N1          12.3690    -5.9240    19.8420 N.pl3        1 IND127   0.0000
     2 C2          11.1480    -5.3310    19.6210 C.2          1 IND127   0.0000
     3 C3          11.0200    -4.1050    20.2680 C.2          1 IND127   0.0000
     4 C4          12.7730    -2.9470    21.7120 C.ar         1 IND127   0.0000
     5 C5          14.0680    -3.0710    22.2230 C.ar         1 IND127   0.0000
     6 C6          14.8770    -4.1740    21.9470 C.ar         1 IND127   0.0000
     7 C7          14.4250    -5.2220    21.1460 C.ar         1 IND127   0.0000
     8 C8          13.1360    -5.1440    20.6260 C.ar         1 IND127   0.0000
     9 C9          12.2900    -3.9720    20.9080 C.ar         1 IND127   0.0000
    10 H1          12.6478    -6.8103    19.4721 H            1 IND127   0.0000
    11 H2          10.4294    -5.7368    19.0563 H            1 IND127   0.0000
    12 H3          10.2402    -3.4791    20.2813 H            1 IND127   0.0000
    13 H4          12.2117    -2.1456    21.9186 H            1 IND127   0.0000
    14 H5          14.4276    -2.3434    22.8072 H            1 IND127   0.0000
    15 H6          15.7993    -4.2136    22.3314 H            1 IND127   0.0000
    16 H7          15.0109    -6.0084    20.9504 H            1 IND127   0.0000
@<TRIPOS>BOND
     1    1    2       1
     2    1    8       1
     3    2    3       2
     4    3    9       1
     5    4    5      ar
     6    4    9      ar
     7    5    6      ar
     8    6    7      ar
     9    7    8      ar
    10    8    9      ar
    11    1   10       1
    12    2   11       1
    13    3   12       1
    14    4   13       1
    15    5   14       1
    16    6   15       1
    17    7   16       1
@<TRIPOS>SUBSTRUCTURE
     1 IND127      1 GROUP             4 A     IND     0 **** IND A 127
