@<TRIPOS>MOLECULE
2zzn_SAM_2_ligand
   50    52     1     0     0
SMALL
NO_CHARGES


@<TRIPOS>ATOM
     1 N           42.5790   -33.5550   -37.4320 N.4          1 SAM402   1.0000
     2 CA          41.8670   -33.0060   -38.6010 C.3          1 SAM402   0.0000
     3 C           42.6590   -31.7920   -39.1570 C.2          1 SAM402   0.0000
     4 O           43.5720   -31.3020   -38.5200 O.co2        1 SAM402   0.0000
     5 OXT         42.3810   -31.2990   -40.2310 O.co2        1 SAM402  -1.0000
     6 CB          40.4550   -32.5370   -38.1880 C.3          1 SAM402   0.0000
     7 CG          39.4990   -33.6090   -37.5740 C.3          1 SAM402   0.0000
     8 SD          37.9360   -32.7070   -37.2020 S.3          1 SAM402   1.0000
     9 CE          38.4830   -31.6840   -35.8000 C.3          1 SAM402   0.0000
    10 C5'         36.7180   -33.7830   -36.4010 C.3          1 SAM402   0.0000
    11 C4'         36.3030   -34.9840   -37.2150 C.3          1 SAM402   0.0000
    12 O4'         35.7940   -35.9400   -36.2810 O.3          1 SAM402   0.0000
    13 C3'         35.1940   -34.6360   -38.2140 C.3          1 SAM402   0.0000
    14 O3'         35.6030   -34.8770   -39.5670 O.3          1 SAM402   0.0000
    15 C2'         33.9750   -35.4990   -37.7910 C.3          1 SAM402   0.0000
    16 O2'         33.3930   -36.2020   -38.9020 O.3          1 SAM402   0.0000
    17 C1'         34.5300   -36.4680   -36.7180 C.3          1 SAM402   0.0000
    18 N9          33.6500   -36.6220   -35.5510 N.pl3        1 SAM402   0.0000
    19 C8          32.9360   -35.6370   -34.9100 C.2          1 SAM402   0.0000
    20 N7          32.2740   -36.1410   -33.9090 N.2          1 SAM402   0.0000
    21 C5          32.5170   -37.4750   -33.8360 C.ar         1 SAM402   0.0000
    22 C6          32.0990   -38.5350   -32.9820 C.ar         1 SAM402   0.0000
    23 N6          31.2390   -38.2900   -31.9220 N.pl3        1 SAM402   0.0000
    24 N1          32.5580   -39.7850   -33.2230 N.ar         1 SAM402   0.0000
    25 C2          33.3900   -40.0470   -34.2360 C.ar         1 SAM402   0.0000
    26 N3          33.8070   -39.0860   -35.0540 N.ar         1 SAM402   0.0000
    27 C4          33.4020   -37.8030   -34.8950 C.ar         1 SAM402   0.0000
    28 H1          41.9855   -33.5092   -36.6285 H            1 SAM402   0.0000
    29 H2          42.8267   -34.5074   -37.6096 H            1 SAM402   0.0000
    30 HA          41.7926   -33.7092   -39.3081 H            1 SAM402   0.0000
    31 HB1         40.0096   -32.1685   -39.0040 H            1 SAM402   0.0000
    32 HB2         40.5655   -31.8092   -37.5111 H            1 SAM402   0.0000
    33 HG1         39.8914   -33.9904   -36.7370 H            1 SAM402   0.0000
    34 HG2         39.3313   -34.3456   -38.2292 H            1 SAM402   0.0000
    35 HE1         37.7202   -31.1224   -35.4795 H            1 SAM402   0.0000
    36 HE2         38.7960   -32.2761   -35.0574 H            1 SAM402   0.0000
    37 HE3         39.2334   -31.0913   -36.0926 H            1 SAM402   0.0000
    38 H5'1        35.9008   -33.2394   -36.2095 H            1 SAM402   0.0000
    39 H5'2        37.1097   -34.1102   -35.5411 H            1 SAM402   0.0000
    40 H4'         37.0934   -35.3620   -37.6971 H            1 SAM402   0.0000
    41 H3'         34.9580   -33.6695   -38.1134 H            1 SAM402   0.0000
    42 H15         35.8343   -35.8435   -39.6782 H            1 SAM402   0.0000
    43 H2'         33.2825   -34.9093   -37.3754 H            1 SAM402   0.0000
    44 H17         33.8315   -37.0956   -38.9977 H            1 SAM402   0.0000
    45 H1'         34.6783   -37.3649   -37.1347 H            1 SAM402   0.0000
    46 H19         32.9267   -34.6727   -35.1747 H            1 SAM402   0.0000
    47 H20         30.9511   -39.0410   -31.3278 H            1 SAM402   0.0000
    48 H21         30.9067   -37.3623   -31.7518 H            1 SAM402   0.0000
    49 H22         33.7050   -40.9849   -34.3813 H            1 SAM402   0.0000
    50 H23         43.4076   -33.0206   -37.2652 H            1 SAM402   0.0000
@<TRIPOS>BOND
     1    1    2       1
     2    2    3       1
     3    2    6       1
     4    3    4      ar
     5    3    5      ar
     6    6    7       1
     7    7    8       1
     8    8    9       1
     9    8   10       1
    10   10   11       1
    11   11   12       1
    12   11   13       1
    13   12   17       1
    14   13   14       1
    15   13   15       1
    16   15   16       1
    17   15   17       1
    18   17   18       1
    19   18   19       1
    20   18   27       1
    21   19   20       2
    22   20   21       1
    23   21   22      ar
    24   21   27      ar
    25   22   23       1
    26   22   24      ar
    27   24   25      ar
    28   25   26      ar
    29   26   27      ar
    30    1   28       1
    31    1   29       1
    32    2   30       1
    33    1   50       1
    34    6   31       1
    35    6   32       1
    36    7   33       1
    37    7   34       1
    38    9   35       1
    39    9   36       1
    40    9   37       1
    41   10   38       1
    42   10   39       1
    43   11   40       1
    44   13   41       1
    45   14   42       1
    46   15   43       1
    47   16   44       1
    48   17   45       1
    49   19   46       1
    50   23   47       1
    51   23   48       1
    52   25   49       1
@<TRIPOS>SUBSTRUCTURE
     1 SAM402      1 GROUP             4 B     SAM     0 **** SAM B 402
