@<TRIPOS>MOLECULE
3vgn_FNN_2_ligand
   15    15     1     0     0
SMALL
NO_CHARGES


@<TRIPOS>ATOM
     1 F            2.0470   -24.4790   -37.1790 F            1 FNN140   0.0000
     2 N            3.0700   -26.3630   -35.3860 N.2          1 FNN140   1.0000
     3 O            4.5950   -21.2080   -35.1330 O.3          1 FNN140   0.0000
     4 C1           4.2470   -22.4800   -35.2280 C.ar         1 FNN140   0.0000
     5 O1           3.9490   -27.3270   -34.8240 O.co2        1 FNN140   0.0000
     6 C2           3.3270   -22.8120   -36.1950 C.ar         1 FNN140   0.0000
     7 O2           1.8100   -26.7500   -35.9340 O.co2        1 FNN140  -1.0000
     8 C3           2.9260   -24.1320   -36.2460 C.ar         1 FNN140   0.0000
     9 C4           3.4430   -25.0790   -35.3600 C.ar         1 FNN140   0.0000
    10 C5           4.3500   -24.7380   -34.3840 C.ar         1 FNN140   0.0000
    11 C6           4.7140   -23.4270   -34.2990 C.ar         1 FNN140   0.0000
    12 H1           5.2609   -20.9219   -34.4439 H            1 FNN140   0.0000
    13 H2           2.9658   -22.1298   -36.8307 H            1 FNN140   0.0000
    14 H3           4.7272   -25.4240   -33.7618 H            1 FNN140   0.0000
    15 H4           5.3240   -23.1334   -33.5629 H            1 FNN140   0.0000
@<TRIPOS>BOND
     1    1    8       1
     2    2    5      ar
     3    2    7      ar
     4    2    9       1
     5    3    4       1
     6    4    6      ar
     7    4   11      ar
     8    6    8      ar
     9    8    9      ar
    10    9   10      ar
    11   10   11      ar
    12    3   12       1
    13    6   13       1
    14   10   14       1
    15   11   15       1
@<TRIPOS>SUBSTRUCTURE
     1 FNN140      1 GROUP             4 B     FNN     0 **** FNN B 140
