@<TRIPOS>MOLECULE
4zow_CLM_1_ligand
   32    32     1     0     0
SMALL
NO_CHARGES


@<TRIPOS>ATOM
     1 C1         -17.5680    10.0890    24.5440 C.3          1 CLM500   0.0000
     2 CL1        -18.6100     9.9190    23.1360 Cl           1 CLM500   0.0000
     3 CL2        -15.8740     9.7580    24.1820 Cl           1 CLM500   0.0000
     4 C2         -17.7580    11.4690    25.1950 C.2          1 CLM500   0.0000
     5 O2         -17.0470    11.8100    26.1070 O.2          1 CLM500   0.0000
     6 N2         -18.7840    12.3380    24.7190 N.am         1 CLM500   0.0000
     7 C3         -18.9840    13.6370    25.3390 C.3          1 CLM500   0.0000
     8 C4         -20.3480    13.6530    25.9080 C.3          1 CLM500   0.0000
     9 O4         -21.2490    13.1750    24.9220 O.3          1 CLM500   0.0000
    10 C5         -18.8380    14.7740    24.3260 C.3          1 CLM500   0.0000
    11 O5         -18.7590    14.2480    23.0160 O.3          1 CLM500   0.0000
    12 C6         -17.5900    15.5610    24.6540 C.ar         1 CLM500   0.0000
    13 C7         -16.6350    15.7850    23.6990 C.ar         1 CLM500   0.0000
    14 C8         -15.4810    16.5190    24.0270 C.ar         1 CLM500   0.0000
    15 C9         -15.3090    17.0310    25.3620 C.ar         1 CLM500   0.0000
    16 N9         -14.1830    17.7460    25.6890 N.2          1 CLM500   1.0000
    17 O9A        -13.8920    17.9880    26.9960 O.co2        1 CLM500   0.0000
    18 O9B        -13.3630    18.2130    24.7100 O.co2        1 CLM500  -1.0000
    19 C10        -16.2710    16.8000    26.3190 C.ar         1 CLM500   0.0000
    20 C11        -17.4100    16.0750    25.9950 C.ar         1 CLM500   0.0000
    21 H1         -17.8640     9.4063    25.2121 H            1 CLM500   0.0000
    22 H2         -19.3664    12.0530    23.9577 H            1 CLM500   0.0000
    23 H3         -18.3169    13.7599    26.0737 H            1 CLM500   0.0000
    24 H4         -20.5950    14.5867    26.1673 H            1 CLM500   0.0000
    25 H5         -20.3848    13.0624    26.7141 H            1 CLM500   0.0000
    26 H6         -21.5821    13.9427    24.3746 H            1 CLM500   0.0000
    27 H7         -19.6334    15.3766    24.3910 H            1 CLM500   0.0000
    28 H8         -19.5146    14.6055    22.4671 H            1 CLM500   0.0000
    29 H9         -16.7573    15.4285    22.7728 H            1 CLM500   0.0000
    30 H10        -14.7801    16.6853    23.3334 H            1 CLM500   0.0000
    31 H11        -16.1497    17.1539    27.2464 H            1 CLM500   0.0000
    32 H12        -18.1085    15.9074    26.6907 H            1 CLM500   0.0000
@<TRIPOS>BOND
     1    1    2       1
     2    1    3       1
     3    1    4       1
     4    4    5       2
     5    4    6      am
     6    6    7       1
     7    7    8       1
     8    7   10       1
     9    8    9       1
    10   10   11       1
    11   10   12       1
    12   12   13      ar
    13   12   20      ar
    14   13   14      ar
    15   14   15      ar
    16   15   16       1
    17   15   19      ar
    18   16   17      ar
    19   16   18      ar
    20   19   20      ar
    21    1   21       1
    22    6   22       1
    23    7   23       1
    24    8   24       1
    25    8   25       1
    26    9   26       1
    27   10   27       1
    28   11   28       1
    29   13   29       1
    30   14   30       1
    31   19   31       1
    32   20   32       1
@<TRIPOS>SUBSTRUCTURE
     1 CLM500      1 GROUP             4 A     CLM     0 **** CLM A 500
