@<TRIPOS>MOLECULE
1ef9_2CP_1_ligand
   91    93     1     0     0
SMALL
NO_CHARGES


@<TRIPOS>ATOM
     1 C8          -7.4740   -31.0200    43.0060 C.2          1 2CP270   0.0000
     2 N9          -8.2380   -32.0730    42.5740 N.pl3        1 2CP270   0.0000
     3 C4          -8.8820   -31.6030    41.4040 C.ar         1 2CP270   0.0000
     4 C5          -8.4830   -30.3020    41.2310 C.ar         1 2CP270   0.0000
     5 N7          -7.5900   -29.9500    42.2370 N.2          1 2CP270   0.0000
     6 N3          -9.7720   -32.2530    40.5740 N.ar         1 2CP270   0.0000
     7 C2         -10.1950   -31.4760    39.5890 C.ar         1 2CP270   0.0000
     8 N1          -9.8950   -30.2340    39.2970 N.ar         1 2CP270   0.0000
     9 C6          -9.0340   -29.5840    40.1050 C.ar         1 2CP270   0.0000
    10 N6          -8.7400   -28.3200    39.8140 N.pl3        1 2CP270   0.0000
    11 C1'         -8.4270   -33.1880    43.2010 C.3          1 2CP270   0.0000
    12 C2'         -7.3560   -34.2730    43.0990 C.3          1 2CP270   0.0000
    13 O2'         -7.4020   -34.8170    41.7470 O.3          1 2CP270   0.0000
    14 C3'         -7.8920   -35.2970    44.0750 C.3          1 2CP270   0.0000
    15 O3'         -8.8360   -36.2920    43.6940 O.3          1 2CP270   0.0000
    16 C4'         -8.1180   -34.3230    45.2890 C.3          1 2CP270   0.0000
    17 O4'         -8.4910   -33.0400    44.6280 O.3          1 2CP270   0.0000
    18 C5'         -7.0580   -34.1610    46.2820 C.3          1 2CP270   0.0000
    19 O5'         -5.9810   -33.5550    45.6850 O.3          1 2CP270   0.0000
    20 P1          -4.7550   -33.5030    46.5500 P.3          1 2CP270   0.0000
    21 O11         -3.5190   -33.2230    45.6500 O.co2        1 2CP270   0.0000
    22 O12         -4.6160   -34.8970    47.2050 O.co2        1 2CP270  -1.0000
    23 O6          -4.9130   -32.4470    47.6730 O.3          1 2CP270   0.0000
    24 P2          -3.8230   -31.5630    48.3470 P.3          1 2CP270   0.0000
    25 O21         -2.5600   -32.4000    48.6350 O.co2        1 2CP270   0.0000
    26 O22         -4.3340   -30.9870    49.6800 O.co2        1 2CP270  -1.0000
    27 O7          -3.4510   -30.3740    47.4060 O.3          1 2CP270   0.0000
    28 CPB         -4.6710   -29.6420    47.2100 C.3          1 2CP270   0.0000
    29 CPA         -4.5640   -28.6430    46.0690 C.3          1 2CP270   0.0000
    30 CP7         -4.2540   -29.5140    44.8440 C.3          1 2CP270   0.0000
    31 CP9         -3.4060   -27.7020    46.4100 C.3          1 2CP270   0.0000
    32 CP8         -5.8580   -27.8170    45.8660 C.3          1 2CP270   0.0000
    33 OP3         -5.3690   -30.3790    44.5200 O.3          1 2CP270   0.0000
    34 CP6         -3.8840   -28.7740    43.5890 C.2          1 2CP270   0.0000
    35 OP2         -2.8310   -28.1420    43.6060 O.2          1 2CP270   0.0000
    36 NP2         -4.8680   -28.7130    42.5490 N.am         1 2CP270   0.0000
    37 CP5         -4.4120   -28.0210    41.4090 C.3          1 2CP270   0.0000
    38 CP4         -4.7300   -26.5370    41.5090 C.3          1 2CP270   0.0000
    39 CP3         -4.6560   -25.8790    40.1250 C.2          1 2CP270   0.0000
    40 OP1         -3.6430   -25.4150    39.6250 O.2          1 2CP270   0.0000
    41 NP1         -5.9160   -25.8440    39.5480 N.am         1 2CP270   0.0000
    42 CP2         -5.9800   -25.2350    38.3060 C.3          1 2CP270   0.0000
    43 CP1         -6.7430   -25.9840    37.2810 C.3          1 2CP270   0.0000
    44 P3          -8.4490   -37.7510    43.9230 P.3          1 2CP270   0.0000
    45 O31         -9.7310   -38.4880    44.3080 O.co2        1 2CP270   0.0000
    46 O32         -7.8920   -38.3590    42.6270 O.co2        1 2CP270  -1.0000
    47 O33         -7.3920   -37.8260    45.0540 O.co2        1 2CP270  -1.0000
    48 S           -7.0280   -25.6500    35.7030 S.3          1 2CP270   0.0000
    49 CS1         -5.8060   -24.3780    35.5410 C.3          1 2CP270   0.0000
    50 CS2         -6.2250   -22.9810    35.8650 C.3          1 2CP270   0.0000
    51 CS3         -5.4590   -22.0240    34.9930 C.3          1 2CP270   0.0000
    52 CS4         -7.6190   -22.5290    35.8540 C.2          1 2CP270   0.0000
    53 OS4         -8.2130   -22.4030    36.8840 O.co2        1 2CP270   0.0000
    54 OS5         -8.4700   -22.3930    34.6250 O.co2        1 2CP270  -1.0000
    55 H1          -6.8904   -31.0569    43.8172 H            1 2CP270   0.0000
    56 H2         -10.8493   -31.9064    38.9672 H            1 2CP270   0.0000
    57 H3          -9.1566   -27.8802    39.0184 H            1 2CP270   0.0000
    58 H4          -8.1023   -27.8094    40.3908 H            1 2CP270   0.0000
    59 H1'         -9.2941   -33.5768    42.8895 H            1 2CP270   0.0000
    60 H2'         -6.4466   -33.9412    43.3498 H            1 2CP270   0.0000
    61 H7          -8.0396   -35.5868    41.7190 H            1 2CP270   0.0000
    62 H3'         -7.0832   -35.8230    44.3379 H            1 2CP270   0.0000
    63 H4'         -8.9286   -34.6470    45.7768 H            1 2CP270   0.0000
    64 H5'1        -6.7871   -35.0571    46.6336 H            1 2CP270   0.0000
    65 H5'2        -7.3879   -33.5929    47.0360 H            1 2CP270   0.0000
    66 HPB1        -4.8888   -29.1477    48.0516 H            1 2CP270   0.0000
    67 HPB2        -5.4052   -30.2889    47.0039 H            1 2CP270   0.0000
    68 HP7         -3.4806   -30.1010    45.0833 H            1 2CP270   0.0000
    69 HP91        -3.3006   -27.0254    45.6812 H            1 2CP270   0.0000
    70 HP92        -3.5990   -27.2351    47.2730 H            1 2CP270   0.0000
    71 HP93        -2.5618   -28.2307    46.4985 H            1 2CP270   0.0000
    72 HP81        -5.7307   -27.1794    45.1062 H            1 2CP270   0.0000
    73 HP82        -6.6181   -28.4334    45.6602 H            1 2CP270   0.0000
    74 HP83        -6.0609   -27.3048    46.7006 H            1 2CP270   0.0000
    75 HP3         -5.2718   -31.2456    45.0095 H            1 2CP270   0.0000
    76 HP2         -5.7794   -29.1176    42.6240 H            1 2CP270   0.0000
    77 HP51        -4.8590   -28.3973    40.5975 H            1 2CP270   0.0000
    78 HP52        -3.4222   -28.1387    41.3291 H            1 2CP270   0.0000
    79 HP41        -4.0688   -26.0987    42.1179 H            1 2CP270   0.0000
    80 HP42        -5.6516   -26.4219    41.8796 H            1 2CP270   0.0000
    81 HP1         -6.7215   -26.2310    39.9968 H            1 2CP270   0.0000
    82 HP21        -5.0456   -25.1146    37.9709 H            1 2CP270   0.0000
    83 HP22        -6.4108   -24.3399    38.4211 H            1 2CP270   0.0000
    84 HP11        -7.6570   -26.0706    37.6773 H            1 2CP270   0.0000
    85 HP12        -6.3020   -26.8813    37.2610 H            1 2CP270   0.0000
    86 HS11        -5.4894   -24.3844    34.5924 H            1 2CP270   0.0000
    87 HS12        -5.0462   -24.6122    36.1476 H            1 2CP270   0.0000
    88 HS2         -5.8981   -22.8138    36.7952 H            1 2CP270   0.0000
    89 HS31        -5.7347   -21.0864    35.2048 H            1 2CP270   0.0000
    90 HS32        -4.4792   -22.1297    35.1627 H            1 2CP270   0.0000
    91 HS33        -5.6539   -22.2198    34.0319 H            1 2CP270   0.0000
@<TRIPOS>BOND
     1    1    2       1
     2    1    5       2
     3    2    3       1
     4    2   11       1
     5    3    4      ar
     6    3    6      ar
     7    4    5       1
     8    4    9      ar
     9    6    7      ar
    10    7    8      ar
    11    8    9      ar
    12    9   10       1
    13   11   12       1
    14   11   17       1
    15   12   13       1
    16   12   14       1
    17   14   15       1
    18   14   16       1
    19   15   44       1
    20   16   17       1
    21   16   18       1
    22   18   19       1
    23   19   20       1
    24   20   21      ar
    25   20   22      ar
    26   20   23       1
    27   23   24       1
    28   24   25      ar
    29   24   26      ar
    30   24   27       1
    31   27   28       1
    32   28   29       1
    33   29   30       1
    34   29   31       1
    35   29   32       1
    36   30   33       1
    37   30   34       1
    38   34   35       2
    39   34   36      am
    40   36   37       1
    41   37   38       1
    42   38   39       1
    43   39   40       2
    44   39   41      am
    45   41   42       1
    46   42   43       1
    47   43   48       1
    48   44   45      ar
    49   44   46      ar
    50   44   47      ar
    51   48   49       1
    52   49   50       1
    53   50   51       1
    54   50   52       1
    55   52   53      ar
    56   52   54      ar
    57    1   55       1
    58    7   56       1
    59   10   57       1
    60   10   58       1
    61   11   59       1
    62   12   60       1
    63   13   61       1
    64   14   62       1
    65   16   63       1
    66   18   64       1
    67   18   65       1
    68   50   88       1
    69   51   91       1
    70   28   66       1
    71   28   67       1
    72   30   68       1
    73   31   69       1
    74   31   70       1
    75   31   71       1
    76   32   72       1
    77   32   73       1
    78   32   74       1
    79   33   75       1
    80   36   76       1
    81   37   77       1
    82   37   78       1
    83   38   79       1
    84   38   80       1
    85   41   81       1
    86   42   82       1
    87   42   83       1
    88   43   84       1
    89   43   85       1
    90   51   90       1
    91   51   89       1
    92   49   86       1
    93   49   87       1
@<TRIPOS>SUBSTRUCTURE
     1 2CP270      1 GROUP             4 A     2CP     0 **** 2CP A 270
