@<TRIPOS>MOLECULE
3bj8_COA_1_ligand
   80    82     1     0     0
SMALL
NO_CHARGES


@<TRIPOS>ATOM
     1 N1A         13.4190    52.1720    52.2680 N.ar         1 COA400   0.0000
     2 C2A         12.7650    53.4950    52.3400 C.ar         1 COA400   0.0000
     3 N3A         11.8460    53.9470    51.3810 N.ar         1 COA400   0.0000
     4 C4A         11.5850    53.0650    50.3460 C.ar         1 COA400   0.0000
     5 C5A         12.1560    51.7140    50.1370 C.ar         1 COA400   0.0000
     6 C6A         13.1420    51.2640    51.1900 C.ar         1 COA400   0.0000
     7 N6A         13.7150    50.0970    51.1190 N.pl3        1 COA400   0.0000
     8 N7A         11.6900    51.1200    49.0320 N.2          1 COA400   0.0000
     9 C8A         10.8450    52.0020    48.5020 C.2          1 COA400   0.0000
    10 N9A         10.7200    53.2240    49.2380 N.pl3        1 COA400   0.0000
    11 C1B          9.9480    54.5240    49.1300 C.3          1 COA400   0.0000
    12 C2B         10.8260    55.5940    48.6030 C.3          1 COA400   0.0000
    13 O2B         10.5000    56.9160    48.9430 O.3          1 COA400   0.0000
    14 C3B         10.9140    55.3670    47.1330 C.3          1 COA400   0.0000
    15 O3B         10.9370    56.4950    46.0720 O.3          1 COA400   0.0000
    16 P3B         12.3420    56.5390    45.2050 P.3          1 COA400   0.0000
    17 O7A         12.1760    57.3820    43.8800 O.co2        1 COA400   0.0000
    18 O8A         12.7090    55.0540    44.8580 O.co2        1 COA400  -1.0000
    19 O9A         13.4260    57.1820    46.1910 O.co2        1 COA400  -1.0000
    20 C4B          9.5180    54.6430    46.7420 C.3          1 COA400   0.0000
    21 O4B          8.9840    54.1670    48.1090 O.3          1 COA400   0.0000
    22 C5B          9.6220    53.8120    45.5270 C.3          1 COA400   0.0000
    23 O5B          8.2790    53.1950    45.5430 O.3          1 COA400   0.0000
    24 P1A          8.2900    51.5720    45.8400 P.3          1 COA400   0.0000
    25 O1A          7.8270    51.3170    47.2160 O.co2        1 COA400   0.0000
    26 O2A          9.6160    50.9820    45.5230 O.co2        1 COA400  -1.0000
    27 O3A          7.1600    51.1020    44.9980 O.3          1 COA400   0.0000
    28 P2A          5.5690    51.0950    45.0160 P.3          1 COA400   0.0000
    29 O4A          5.0630    49.9430    45.7360 O.co2        1 COA400   0.0000
    30 O5A          5.0910    52.3570    45.6490 O.co2        1 COA400  -1.0000
    31 O6A          5.2200    51.1250    43.4380 O.3          1 COA400   0.0000
    32 CBP          3.7350    52.4830    41.9920 C.3          1 COA400   0.0000
    33 CCP          5.1760    52.2880    42.6430 C.3          1 COA400   0.0000
    34 CDP          3.7440    53.7720    41.0790 C.3          1 COA400   0.0000
    35 CEP          3.5410    51.2160    41.1550 C.3          1 COA400   0.0000
    36 CAP          2.5760    52.6960    43.1730 C.3          1 COA400   0.0000
    37 OAP          2.8160    53.9310    43.9190 O.3          1 COA400   0.0000
    38 C9P          1.0880    52.7440    42.6760 C.2          1 COA400   0.0000
    39 O9P          0.5010    51.5990    42.2950 O.2          1 COA400   0.0000
    40 N8P          0.6620    53.8990    42.2320 N.am         1 COA400   0.0000
    41 C7P         -0.5220    54.6150    42.7260 C.3          1 COA400   0.0000
    42 C6P         -1.7750    54.1210    41.9820 C.3          1 COA400   0.0000
    43 C5P         -2.0730    54.9520    40.7280 C.2          1 COA400   0.0000
    44 O5P         -3.0730    55.8130    40.6610 O.2          1 COA400   0.0000
    45 N4P         -1.1580    54.8090    39.7680 N.am         1 COA400   0.0000
    46 C3P         -1.1390    53.6680    38.7410 C.3          1 COA400   0.0000
    47 C2P         -0.7180    54.2410    37.4140 C.3          1 COA400   0.0000
    48 S1P          0.8610    53.5160    36.7680 S.3          1 COA400   0.0000
    49 H2A         12.9877    54.0959    53.1076 H            1 COA400   0.0000
    50 H6A1        13.5055    49.4826    50.3583 H            1 COA400   0.0000
    51 H6A2        14.3646    49.8151    51.8251 H            1 COA400   0.0000
    52 H8A         10.3385    51.8253    47.6580 H            1 COA400   0.0000
    53 H1B          9.5116    54.7802    49.9925 H            1 COA400   0.0000
    54 H2B         11.7389    55.4215    48.9730 H            1 COA400   0.0000
    55 H7          10.3246    57.4408    48.1101 H            1 COA400   0.0000
    56 H3B         11.6673    54.7357    46.9488 H            1 COA400   0.0000
    57 H4B          8.9100    55.3932    46.4821 H            1 COA400   0.0000
    58 H5B1        10.3481    53.1286    45.6027 H            1 COA400   0.0000
    59 H5B2         9.7692    54.3654    44.7072 H            1 COA400   0.0000
    60 HCP1         5.8562    52.2113    41.9140 H            1 COA400   0.0000
    61 HCP2         5.3869    53.0818    43.2134 H            1 COA400   0.0000
    62 HDP1         2.8404    53.8965    40.6692 H            1 COA400   0.0000
    63 HDP2         3.9714    54.5721    41.6341 H            1 COA400   0.0000
    64 HDP3         4.4260    53.6634    40.3557 H            1 COA400   0.0000
    65 HEP1         2.6502    51.2490    40.7018 H            1 COA400   0.0000
    66 HEP2         4.2635    51.1577    40.4661 H            1 COA400   0.0000
    67 HEP3         3.5826    50.4136    41.7503 H            1 COA400   0.0000
    68 HAP          2.6557    51.9341    43.8158 H            1 COA400   0.0000
    69 H21          3.4078    53.7380    44.7017 H            1 COA400   0.0000
    70 H8P          1.1851    54.3294    41.4964 H            1 COA400   0.0000
    71 H7P1        -0.4070    55.5958    42.5685 H            1 COA400   0.0000
    72 H7P2        -0.6285    54.4450    43.7057 H            1 COA400   0.0000
    73 H6P1        -2.5593    54.1785    42.5997 H            1 COA400   0.0000
    74 H6P2        -1.6334    53.1690    41.7107 H            1 COA400   0.0000
    75 H4P         -0.4320    55.4945    39.7133 H            1 COA400   0.0000
    76 H3P1        -2.0517    53.2669    38.6629 H            1 COA400   0.0000
    77 H3P2        -0.4891    52.9643    39.0280 H            1 COA400   0.0000
    78 H2P1        -0.5941    55.2277    37.5195 H            1 COA400   0.0000
    79 H2P2        -1.4433    54.0654    36.7483 H            1 COA400   0.0000
    80 H1P          0.9515    52.5737    37.0902 H            1 COA400   0.0000
@<TRIPOS>BOND
     1    1    2      ar
     2    1    6      ar
     3    2    3      ar
     4    3    4      ar
     5    4    5      ar
     6    4   10       1
     7    5    6      ar
     8    5    8       1
     9    6    7       1
    10    8    9       2
    11    9   10       1
    12   10   11       1
    13   11   12       1
    14   11   21       1
    15   12   13       1
    16   12   14       1
    17   14   15       1
    18   14   20       1
    19   15   16       1
    20   16   17      ar
    21   16   18      ar
    22   16   19      ar
    23   20   21       1
    24   20   22       1
    25   22   23       1
    26   23   24       1
    27   24   25      ar
    28   24   26      ar
    29   24   27       1
    30   27   28       1
    31   28   29      ar
    32   28   30      ar
    33   28   31       1
    34   31   33       1
    35   32   33       1
    36   32   34       1
    37   32   35       1
    38   32   36       1
    39   36   37       1
    40   36   38       1
    41   38   39       2
    42   38   40      am
    43   40   41       1
    44   41   42       1
    45   42   43       1
    46   43   44       2
    47   43   45      am
    48   45   46       1
    49   46   47       1
    50   47   48       1
    51    2   49       1
    52    7   50       1
    53    7   51       1
    54    9   52       1
    55   11   53       1
    56   12   54       1
    57   13   55       1
    58   14   56       1
    59   48   80       1
    60   47   79       1
    61   20   57       1
    62   22   58       1
    63   22   59       1
    64   47   78       1
    65   46   77       1
    66   33   60       1
    67   33   61       1
    68   34   62       1
    69   34   63       1
    70   34   64       1
    71   35   65       1
    72   35   66       1
    73   35   67       1
    74   36   68       1
    75   37   69       1
    76   40   70       1
    77   41   71       1
    78   41   72       1
    79   42   73       1
    80   42   74       1
    81   45   75       1
    82   46   76       1
@<TRIPOS>SUBSTRUCTURE
     1 COA400      1 GROUP             4 A     COA     0 **** COA A 400
