@<TRIPOS>MOLECULE
2iyg_FMN_2_ligand
   50    52     1     0     0
SMALL
NO_CHARGES


@<TRIPOS>ATOM
     1 N1          29.7550    45.7870     7.5830 N.2          1 FMN1122   0.0000
     2 C2          30.2990    44.5840     7.9670 C.2          1 FMN1122   0.0000
     3 O2          31.4260    44.5160     8.4430 O.2          1 FMN1122   0.0000
     4 N3          29.5670    43.4350     7.8070 N.pl3        1 FMN1122   0.0000
     5 C4          28.3050    43.4440     7.2630 C.2          1 FMN1122   0.0000
     6 O4          27.6980    42.3840     7.2330 O.2          1 FMN1122   0.0000
     7 C4A         27.7320    44.6470     6.8560 C.2          1 FMN1122   0.0000
     8 N5          26.4570    44.6970     6.2960 N.2          1 FMN1122   0.0000
     9 C5A         25.9280    45.9250     5.9240 C.ar         1 FMN1122   0.0000
    10 C6          24.6460    46.0020     5.3620 C.ar         1 FMN1122   0.0000
    11 C7          24.1030    47.2290     4.9710 C.ar         1 FMN1122   0.0000
    12 C7M         22.7260    47.2690     4.3600 C.3          1 FMN1122   0.0000
    13 C8          24.8460    48.4030     5.1450 C.ar         1 FMN1122   0.0000
    14 C8M         24.2680    49.7650     4.8090 C.3          1 FMN1122   0.0000
    15 C9          26.1180    48.3260     5.7050 C.ar         1 FMN1122   0.0000
    16 C9A         26.6730    47.1050     6.1060 C.ar         1 FMN1122   0.0000
    17 N10         27.9560    47.0480     6.6480 N.pl3        1 FMN1122   0.0000
    18 C10         28.4800    45.8250     7.0270 C.2          1 FMN1122   0.0000
    19 C1'         28.8440    48.2600     6.7740 C.3          1 FMN1122   0.0000
    20 C2'         28.9110    48.7430     8.2320 C.3          1 FMN1122   0.0000
    21 O2'         27.7710    49.5130     8.5220 O.3          1 FMN1122   0.0000
    22 C3'         30.1350    49.6030     8.5380 C.3          1 FMN1122   0.0000
    23 O3'         30.3170    50.5140     7.4860 O.3          1 FMN1122   0.0000
    24 C4'         31.4420    48.8250     8.6290 C.3          1 FMN1122   0.0000
    25 O4'         31.3850    47.7400     9.5410 O.3          1 FMN1122   0.0000
    26 C5'         32.5410    49.7730     9.0740 C.3          1 FMN1122   0.0000
    27 O5'         33.3740    50.0420     7.9700 O.3          1 FMN1122   0.0000
    28 P           34.9160    50.4200     8.2400 P.3          1 FMN1122   0.0000
    29 O1P         35.0890    51.8880     7.8860 O.co2        1 FMN1122   0.0000
    30 O2P         35.1730    50.1760     9.7180 O.co2        1 FMN1122  -1.0000
    31 O3P         35.8320    49.5650     7.3800 O.co2        1 FMN1122  -1.0000
    32 H1          29.9641    42.5636     8.0952 H            1 FMN1122   0.0000
    33 H2          24.1116    45.1658     5.2389 H            1 FMN1122   0.0000
    34 H7M1        22.4872    48.2143     4.1378 H            1 FMN1122   0.0000
    35 H7M2        22.7153    46.7176     3.5258 H            1 FMN1122   0.0000
    36 H7M3        22.0617    46.9016     5.0109 H            1 FMN1122   0.0000
    37 H8M1        24.9484    50.4724     5.0007 H            1 FMN1122   0.0000
    38 H8M2        24.0221    49.7929     3.8401 H            1 FMN1122   0.0000
    39 H8M3        23.4526    49.9274     5.3647 H            1 FMN1122   0.0000
    40 H9          26.6493    49.1648     5.8240 H            1 FMN1122   0.0000
    41 H1'1        28.4782    48.9945     6.2024 H            1 FMN1122   0.0000
    42 H1'2        29.7653    48.0243     6.4647 H            1 FMN1122   0.0000
    43 H2'         28.9209    47.9448     8.8343 H            1 FMN1122   0.0000
    44 H13         27.7378    50.3030     7.9098 H            1 FMN1122   0.0000
    45 H3'         29.9855    50.1040     9.3904 H            1 FMN1122   0.0000
    46 H15         29.8108    51.3540     7.6812 H            1 FMN1122   0.0000
    47 H4'         31.6699    48.4713     7.7218 H            1 FMN1122   0.0000
    48 H17         31.0817    46.9168     9.0611 H            1 FMN1122   0.0000
    49 H5'1        33.0761    49.3496     9.8050 H            1 FMN1122   0.0000
    50 H5'2        32.1371    50.6249     9.4072 H            1 FMN1122   0.0000
@<TRIPOS>BOND
     1    1    2       1
     2    1   18       2
     3    2    3       2
     4    2    4       1
     5    4    5       1
     6    5    6       2
     7    5    7       1
     8    7    8       2
     9    7   18       1
    10    8    9       1
    11    9   10      ar
    12    9   16      ar
    13   10   11      ar
    14   11   12       1
    15   11   13      ar
    16   13   14       1
    17   13   15      ar
    18   15   16      ar
    19   16   17       1
    20   17   18       1
    21   17   19       1
    22   19   20       1
    23   20   21       1
    24   20   22       1
    25   22   23       1
    26   22   24       1
    27   24   25       1
    28   24   26       1
    29   26   27       1
    30   27   28       1
    31   28   29      ar
    32   28   30      ar
    33   28   31      ar
    34    4   32       1
    35   10   33       1
    36   12   34       1
    37   12   35       1
    38   12   36       1
    39   14   37       1
    40   14   38       1
    41   14   39       1
    42   15   40       1
    43   19   41       1
    44   19   42       1
    45   20   43       1
    46   21   44       1
    47   22   45       1
    48   23   46       1
    49   24   47       1
    50   25   48       1
    51   26   49       1
    52   26   50       1
@<TRIPOS>SUBSTRUCTURE
     1 FMN1122     1 GROUP             4 B     FMN     0 **** FMN B1122
