@<TRIPOS>MOLECULE
2cke_IQU_2_ligand
   31    32     1     0     0
SMALL
NO_CHARGES


@<TRIPOS>ATOM
     1 C1         -11.0180    14.1990    32.7010 C.ar         1 IQU1302   0.0000
     2 C2         -11.3120    14.7900    31.4710 C.ar         1 IQU1302   0.0000
     3 C3         -11.8190    16.0850    31.3840 C.ar         1 IQU1302   0.0000
     4 C4         -12.0550    16.8620    32.5180 C.ar         1 IQU1302   0.0000
     5 C5         -11.7920    16.3660    33.7910 C.ar         1 IQU1302   0.0000
     6 C6         -12.0270    17.1330    34.9270 C.ar         1 IQU1302   0.0000
     7 N7         -11.7670    16.6360    36.1450 N.ar         1 IQU1302   0.0000
     8 C8         -11.2760    15.3990    36.3240 C.ar         1 IQU1302   0.0000
     9 C9         -11.0090    14.5540    35.2480 C.ar         1 IQU1302   0.0000
    10 C10        -11.2530    14.9940    33.9480 C.ar         1 IQU1302   0.0000
    11 S          -10.4420    12.7090    32.7080 S.o2         1 IQU1302   0.0000
    12 O1          -9.0130    12.7800    32.8250 O.2          1 IQU1302   0.0000
    13 O2         -10.9750    11.9570    33.8100 O.2          1 IQU1302   0.0000
    14 N1'        -10.9150    11.9650    31.3630 N.3          1 IQU1302   0.0000
    15 C2'         -9.9830    11.3550    30.4340 C.3          1 IQU1302   0.0000
    16 C3'        -10.6370    11.0800    29.0840 C.3          1 IQU1302   0.0000
    17 N4'         -9.7780    10.2880    28.2230 N.4          1 IQU1302   1.0000
    18 H1         -11.1548    14.2708    30.6309 H            1 IQU1302   0.0000
    19 H2         -12.0195    16.4684    30.4824 H            1 IQU1302   0.0000
    20 H3         -12.4181    17.7880    32.4147 H            1 IQU1302   0.0000
    21 H4         -12.3916    18.0596    34.8351 H            1 IQU1302   0.0000
    22 H5         -11.0973    15.0757    37.2533 H            1 IQU1302   0.0000
    23 H6         -10.6442    13.6367    35.4079 H            1 IQU1302   0.0000
    24 H1'        -11.5334    11.2349    31.6537 H            1 IQU1302   0.0000
    25 H2'1        -9.6586    10.4913    30.8196 H            1 IQU1302   0.0000
    26 H2'2        -9.2077    11.9721    30.2996 H            1 IQU1302   0.0000
    27 H3'1       -10.8314    11.9518    28.6344 H            1 IQU1302   0.0000
    28 H3'2       -11.4924    10.5839    29.2333 H            1 IQU1302   0.0000
    29 H4'1       -10.2379    10.1279    27.3496 H            1 IQU1302   0.0000
    30 H4'2        -8.9216    10.7792    28.0637 H            1 IQU1302   0.0000
    31 H4'3        -9.5826     9.4113    28.6625 H            1 IQU1302   0.0000
@<TRIPOS>BOND
     1    1    2      ar
     2    1   10      ar
     3    1   11       1
     4    2    3      ar
     5    3    4      ar
     6    4    5      ar
     7    5    6      ar
     8    5   10      ar
     9    6    7      ar
    10    7    8      ar
    11    8    9      ar
    12    9   10      ar
    13   11   12       2
    14   11   13       2
    15   11   14       1
    16   14   15       1
    17   15   16       1
    18   16   17       1
    19    2   18       1
    20    3   19       1
    21    4   20       1
    22    6   21       1
    23    8   22       1
    24    9   23       1
    25   14   24       1
    26   15   25       1
    27   15   26       1
    28   16   27       1
    29   16   28       1
    30   17   29       1
    31   17   30       1
    32   17   31       1
@<TRIPOS>SUBSTRUCTURE
     1 IQU1302     1 GROUP             4 B     IQU     0 **** IQU B1302
