@<TRIPOS>MOLECULE
2rc3_NAD_4_ligand
   70    74     1     0     0
SMALL
NO_CHARGES


@<TRIPOS>ATOM
     1 PA          26.9830    53.7990    15.5920 P.3          1 NAD1000   0.0000
     2 O1A         25.6630    53.4660    14.9740 O.co2        1 NAD1000   0.0000
     3 O2A         26.8570    54.7610    16.7160 O.co2        1 NAD1000  -1.0000
     4 O5B         27.7060    52.4540    16.0670 O.3          1 NAD1000   0.0000
     5 C5B         28.0550    52.2680    17.4400 C.3          1 NAD1000   0.0000
     6 C4B         28.0530    50.7690    17.7480 C.3          1 NAD1000   0.0000
     7 O4B         26.7190    50.2860    17.7710 O.3          1 NAD1000   0.0000
     8 C3B         28.7810    49.9250    16.7010 C.3          1 NAD1000   0.0000
     9 O3B         29.4440    48.8620    17.3670 O.3          1 NAD1000   0.0000
    10 C2B         27.6510    49.3820    15.8210 C.3          1 NAD1000   0.0000
    11 O2B         27.8290    48.1060    15.2320 O.3          1 NAD1000   0.0000
    12 C1B         26.5360    49.2350    16.8240 C.3          1 NAD1000   0.0000
    13 N9A         25.2030    49.3520    16.2110 N.pl3        1 NAD1000   0.0000
    14 C8A         24.6660    50.4620    15.6010 C.2          1 NAD1000   0.0000
    15 N7A         23.4070    50.1810    15.2190 N.2          1 NAD1000   0.0000
    16 C5A         23.1110    48.9110    15.5740 C.ar         1 NAD1000   0.0000
    17 C6A         21.9640    48.1410    15.4410 C.ar         1 NAD1000   0.0000
    18 N6A         20.8320    48.6490    14.9490 N.pl3        1 NAD1000   0.0000
    19 N1A         21.9990    46.8590    15.9470 N.ar         1 NAD1000   0.0000
    20 C2A         23.1060    46.3390    16.5660 C.ar         1 NAD1000   0.0000
    21 N3A         24.2350    47.1080    16.7100 N.ar         1 NAD1000   0.0000
    22 C4A         24.2260    48.3810    16.2260 C.ar         1 NAD1000   0.0000
    23 O3          27.8970    54.3250    14.3890 O.3          1 NAD1000   0.0000
    24 PN          29.5070    54.5810    14.3780 P.3          1 NAD1000   0.0000
    25 O1N         29.6720    55.7690    13.5130 O.co2        1 NAD1000   0.0000
    26 O2N         30.1830    53.3290    13.9650 O.co2        1 NAD1000  -1.0000
    27 O5D         29.8730    54.8680    15.9040 O.3          1 NAD1000   0.0000
    28 C5D         29.7000    56.1360    16.5240 C.3          1 NAD1000   0.0000
    29 C4D         31.0130    56.5500    17.2210 C.3          1 NAD1000   0.0000
    30 O4D         31.4530    55.5500    18.1450 O.3          1 NAD1000   0.0000
    31 C3D         32.1710    56.7820    16.2520 C.3          1 NAD1000   0.0000
    32 O3D         32.9870    57.8440    16.7360 O.3          1 NAD1000   0.0000
    33 C2D         32.9340    55.4730    16.3170 C.3          1 NAD1000   0.0000
    34 O2D         34.2910    55.6110    15.9390 O.3          1 NAD1000   0.0000
    35 C1D         32.7300    55.0770    17.7760 C.3          1 NAD1000   0.0000
    36 N1N         32.7920    53.6340    18.0240 N.ar         1 NAD1000   1.0000
    37 C2N         33.5610    53.2320    19.0820 C.ar         1 NAD1000   0.0000
    38 C3N         33.6720    51.8940    19.4000 C.ar         1 NAD1000   0.0000
    39 C7N         34.4380    51.4950    20.6300 C.2          1 NAD1000   0.0000
    40 O7N         34.2540    50.2070    21.1070 O.2          1 NAD1000   0.0000
    41 N7N         35.2520    52.3450    21.2670 N.am         1 NAD1000   0.0000
    42 C4N         32.9640    50.9440    18.6410 C.ar         1 NAD1000   0.0000
    43 C5N         32.1810    51.3720    17.5660 C.ar         1 NAD1000   0.0000
    44 C6N         32.0780    52.7270    17.2730 C.ar         1 NAD1000   0.0000
    45 H5B1        27.3878    52.7321    18.0226 H            1 NAD1000   0.0000
    46 H5B2        28.9654    52.6452    17.6099 H            1 NAD1000   0.0000
    47 H4B         28.4730    50.6168    18.6427 H            1 NAD1000   0.0000
    48 H3B         29.4226    50.4781    16.1695 H            1 NAD1000   0.0000
    49 H5          30.2662    48.6101    16.8566 H            1 NAD1000   0.0000
    50 H2B         27.4025    50.0537    15.1231 H            1 NAD1000   0.0000
    51 H7          28.8026    47.9478    15.0672 H            1 NAD1000   0.0000
    52 H1B         26.6155    48.3514    17.2854 H            1 NAD1000   0.0000
    53 H8A         25.1347    51.3347    15.4640 H            1 NAD1000   0.0000
    54 H6A1        20.0201    48.0714    14.8641 H            1 NAD1000   0.0000
    55 H6A2        20.7958    49.6072    14.6653 H            1 NAD1000   0.0000
    56 H2A         23.0917    45.4010    16.9123 H            1 NAD1000   0.0000
    57 H5D1        28.9665    56.0788    17.2013 H            1 NAD1000   0.0000
    58 H5D2        29.4614    56.8163    15.8310 H            1 NAD1000   0.0000
    59 H4D         30.8491    57.3972    17.7264 H            1 NAD1000   0.0000
    60 H3D         31.8413    56.9672    15.3263 H            1 NAD1000   0.0000
    61 H17         33.7024    57.4718    17.3273 H            1 NAD1000   0.0000
    62 H2D         32.4907    54.8001    15.7248 H            1 NAD1000   0.0000
    63 H19         34.7459    54.7225    15.9994 H            1 NAD1000   0.0000
    64 H1D         33.4207    55.5336    18.3368 H            1 NAD1000   0.0000
    65 H2N         34.0466    53.9137    19.6293 H            1 NAD1000   0.0000
    66 H7N1        35.7469    52.0466    22.0831 H            1 NAD1000   0.0000
    67 H7N2        35.3653    53.2785    20.9269 H            1 NAD1000   0.0000
    68 H4N         33.0207    49.9719    18.8688 H            1 NAD1000   0.0000
    69 H5N         31.6935    50.7021    17.0060 H            1 NAD1000   0.0000
    70 H6N         31.4921    53.0396    16.5253 H            1 NAD1000   0.0000
@<TRIPOS>BOND
     1    1    2      ar
     2    1    3      ar
     3    1    4       1
     4    1   23       1
     5    4    5       1
     6    5    6       1
     7    6    7       1
     8    6    8       1
     9    7   12       1
    10    8    9       1
    11    8   10       1
    12   10   11       1
    13   10   12       1
    14   12   13       1
    15   13   14       1
    16   13   22       1
    17   14   15       2
    18   15   16       1
    19   16   17      ar
    20   16   22      ar
    21   17   18       1
    22   17   19      ar
    23   19   20      ar
    24   20   21      ar
    25   21   22      ar
    26   23   24       1
    27   24   25      ar
    28   24   26      ar
    29   24   27       1
    30   27   28       1
    31   28   29       1
    32   29   30       1
    33   29   31       1
    34   30   35       1
    35   31   32       1
    36   31   33       1
    37   33   34       1
    38   33   35       1
    39   35   36       1
    40   36   37      ar
    41   36   44      ar
    42   37   38      ar
    43   38   39       1
    44   38   42      ar
    45   39   40       2
    46   39   41      am
    47   42   43      ar
    48   43   44      ar
    49   44   70       1
    50    5   45       1
    51    5   46       1
    52    6   47       1
    53    8   48       1
    54    9   49       1
    55   10   50       1
    56   11   51       1
    57   12   52       1
    58   14   53       1
    59   18   54       1
    60   18   55       1
    61   20   56       1
    62   43   69       1
    63   28   57       1
    64   28   58       1
    65   29   59       1
    66   31   60       1
    67   32   61       1
    68   33   62       1
    69   34   63       1
    70   35   64       1
    71   37   65       1
    72   41   66       1
    73   41   67       1
    74   42   68       1
@<TRIPOS>SUBSTRUCTURE
     1 NAD1000     1 GROUP             4 D     NAD     0 **** NAD D1000
