@<TRIPOS>MOLECULE
2i76_NDP_1_ligand
   73    77     1     0     0
SMALL
NO_CHARGES


@<TRIPOS>ATOM
     1 PA           3.5140    43.1350     3.4150 P.3          1 NDP301   0.0000
     2 O1A          4.8160    43.1780     4.0430 O.co2        1 NDP301   0.0000
     3 O2A          2.4970    44.2440     3.5530 O.co2        1 NDP301  -1.0000
     4 O5B          3.7590    42.8470     1.8490 O.3          1 NDP301   0.0000
     5 C5B          4.4400    43.8440     1.1150 C.3          1 NDP301   0.0000
     6 C4B          4.4950    43.3110    -0.2940 C.3          1 NDP301   0.0000
     7 O4B          3.0970    43.2480    -0.7620 O.3          1 NDP301   0.0000
     8 C3B          5.2110    44.2070    -1.2160 C.3          1 NDP301   0.0000
     9 O3B          5.9360    43.4260    -2.1570 O.3          1 NDP301   0.0000
    10 C2B          4.1910    45.0360    -1.8550 C.3          1 NDP301   0.0000
    11 O2B          4.4640    45.7780    -3.0510 O.3          1 NDP301   0.0000
    12 C1B          3.0330    44.1000    -1.9140 C.3          1 NDP301   0.0000
    13 N9A          1.7720    44.9150    -1.9610 N.pl3        1 NDP301   0.0000
    14 C8A          1.1790    45.6970    -0.9290 C.2          1 NDP301   0.0000
    15 N7A          0.0750    46.2820    -1.3510 N.2          1 NDP301   0.0000
    16 C5A         -0.0920    45.9240    -2.6550 C.ar         1 NDP301   0.0000
    17 C6A         -1.0780    46.2120    -3.6650 C.ar         1 NDP301   0.0000
    18 N6A         -2.1120    47.0250    -3.3840 N.pl3        1 NDP301   0.0000
    19 N1A         -0.9460    45.6640    -4.9300 N.ar         1 NDP301   0.0000
    20 C2A          0.1130    44.8320    -5.2190 C.ar         1 NDP301   0.0000
    21 N3A          1.0920    44.4960    -4.3330 N.ar         1 NDP301   0.0000
    22 C4A          0.9290    45.0720    -3.0540 C.ar         1 NDP301   0.0000
    23 O3           2.8110    41.7870     3.7360 O.3          1 NDP301   0.0000
    24 PN           2.0830    40.7370     4.7790 P.3          1 NDP301   0.0000
    25 O1N          1.0520    41.7180     5.1340 O.co2        1 NDP301   0.0000
    26 O2N          3.2620    40.4690     5.6690 O.co2        1 NDP301  -1.0000
    27 O5D          1.5140    39.3370     4.3050 O.3          1 NDP301   0.0000
    28 C5D          1.5570    38.9000     2.9180 C.3          1 NDP301   0.0000
    29 C4D          0.9200    37.4780     2.8920 C.3          1 NDP301   0.0000
    30 O4D          1.6200    36.6460     3.8250 O.3          1 NDP301   0.0000
    31 C3D         -0.5510    37.4440     3.3160 C.3          1 NDP301   0.0000
    32 O3D         -1.2450    36.5400     2.4520 O.3          1 NDP301   0.0000
    33 C2D         -0.5230    37.0340     4.7800 C.3          1 NDP301   0.0000
    34 O2D         -1.7640    36.4750     5.1820 O.3          1 NDP301   0.0000
    35 C1D          0.7180    36.0670     4.7840 C.3          1 NDP301   0.0000
    36 N1N          1.4120    35.9490     6.1290 N.ar         1 NDP301   1.0000
    37 C2N          2.0120    37.1170     6.7440 C.ar         1 NDP301   0.0000
    38 C3N          2.6630    36.9040     8.0530 C.ar         1 NDP301   0.0000
    39 C7N          3.3010    38.0270     8.7610 C.2          1 NDP301   0.0000
    40 O7N          3.8470    37.9110     9.8940 O.2          1 NDP301   0.0000
    41 N7N          3.3210    39.2720     8.2030 N.am         1 NDP301   0.0000
    42 C4N          2.6550    35.5950     8.6160 C.ar         1 NDP301   0.0000
    43 C5N          2.0740    34.4990     8.0090 C.ar         1 NDP301   0.0000
    44 C6N          1.4500    34.6690     6.7670 C.ar         1 NDP301   0.0000
    45 P2B          5.8000    45.8170    -3.8220 P.3          1 NDP301   0.0000
    46 O1X          5.4760    46.7500    -4.9060 O.co2        1 NDP301   0.0000
    47 O2X          6.1210    44.4620    -4.3340 O.co2        1 NDP301  -1.0000
    48 O3X          6.9210    46.3430    -2.9340 O.co2        1 NDP301  -1.0000
    49 H5B1         5.3622    43.9803     1.4768 H            1 NDP301   0.0000
    50 H5B2         3.9388    44.7088     1.1456 H            1 NDP301   0.0000
    51 H4B          4.9067    42.3997    -0.3051 H            1 NDP301   0.0000
    52 H3B          5.8425    44.7865    -0.7008 H            1 NDP301   0.0000
    53 H5           6.0089    43.9264    -3.0197 H            1 NDP301   0.0000
    54 H2B          3.9415    45.7213    -1.1708 H            1 NDP301   0.0000
    55 H1B          3.0988    43.5432    -2.7420 H            1 NDP301   0.0000
    56 H8A          1.5510    45.7903    -0.0055 H            1 NDP301   0.0000
    57 H6A1        -2.7961    47.2246    -4.0855 H            1 NDP301   0.0000
    58 H6A2        -2.1966    47.4299    -2.4736 H            1 NDP301   0.0000
    59 H2A          0.1669    44.4488    -6.1411 H            1 NDP301   0.0000
    60 H5D1         2.5027    38.8624     2.5953 H            1 NDP301   0.0000
    61 H5D2         1.0324    39.5257     2.3407 H            1 NDP301   0.0000
    62 H4D          1.0086    37.0925     1.9736 H            1 NDP301   0.0000
    63 H3D         -0.9458    38.3588     3.2313 H            1 NDP301   0.0000
    64 H16         -1.6462    35.8020     2.9946 H            1 NDP301   0.0000
    65 H2D         -0.3215    37.8344     5.3446 H            1 NDP301   0.0000
    66 H18         -2.5028    36.8833     4.6458 H            1 NDP301   0.0000
    67 H1D          0.4359    35.1596     4.4724 H            1 NDP301   0.0000
    68 H2N          1.9866    38.0160     6.3068 H            1 NDP301   0.0000
    69 H7N1         3.7556    40.0306     8.6884 H            1 NDP301   0.0000
    70 H7N2         2.9010    39.4259     7.3086 H            1 NDP301   0.0000
    71 H4N          3.0964    35.4621     9.5034 H            1 NDP301   0.0000
    72 H5N          2.0985    33.6009     8.4481 H            1 NDP301   0.0000
    73 H6N          1.0241    33.8831     6.3188 H            1 NDP301   0.0000
@<TRIPOS>BOND
     1    1    2      ar
     2    1    3      ar
     3    1    4       1
     4    1   23       1
     5    4    5       1
     6    5    6       1
     7    6    7       1
     8    6    8       1
     9    7   12       1
    10    8    9       1
    11    8   10       1
    12   10   11       1
    13   10   12       1
    14   11   45       1
    15   12   13       1
    16   13   14       1
    17   13   22       1
    18   14   15       2
    19   15   16       1
    20   16   17      ar
    21   16   22      ar
    22   17   18       1
    23   17   19      ar
    24   19   20      ar
    25   20   21      ar
    26   21   22      ar
    27   23   24       1
    28   24   25      ar
    29   24   26      ar
    30   24   27       1
    31   27   28       1
    32   28   29       1
    33   29   30       1
    34   29   31       1
    35   30   35       1
    36   31   32       1
    37   31   33       1
    38   33   34       1
    39   33   35       1
    40   35   36       1
    41   36   37      ar
    42   36   44      ar
    43   37   38      ar
    44   38   39       1
    45   38   42      ar
    46   39   40       2
    47   39   41      am
    48   42   43      ar
    49   43   44      ar
    50   45   46      ar
    51   45   47      ar
    52   45   48      ar
    53   43   72       1
    54    5   49       1
    55    5   50       1
    56    6   51       1
    57    8   52       1
    58    9   53       1
    59   10   54       1
    60   12   55       1
    61   14   56       1
    62   18   57       1
    63   18   58       1
    64   20   59       1
    65   44   73       1
    66   28   60       1
    67   28   61       1
    68   29   62       1
    69   31   63       1
    70   32   64       1
    71   33   65       1
    72   34   66       1
    73   35   67       1
    74   37   68       1
    75   41   69       1
    76   41   70       1
    77   42   71       1
@<TRIPOS>SUBSTRUCTURE
     1 NDP301      1 GROUP             4 A     NDP     0 **** NDP A 301
