@<TRIPOS>MOLECULE
4h2d_FMN_1_ligand
   50    52     1     0     0
SMALL
NO_CHARGES


@<TRIPOS>ATOM
     1 N1          39.1140    -5.7080   -15.7550 N.2          1 FMN200   0.0000
     2 C2          39.0710    -5.2740   -17.0320 C.2          1 FMN200   0.0000
     3 O2          38.6890    -4.1090   -17.2330 O.2          1 FMN200   0.0000
     4 N3          39.4370    -6.0440   -18.0790 N.pl3        1 FMN200   0.0000
     5 C4          39.8520    -7.3100   -17.9230 C.2          1 FMN200   0.0000
     6 O4          40.1830    -8.0110   -18.9080 O.2          1 FMN200   0.0000
     7 C4A         39.9300    -7.8690   -16.5560 C.2          1 FMN200   0.0000
     8 N5          40.3500    -9.1370   -16.3120 N.2          1 FMN200   0.0000
     9 C5A         40.3900    -9.6060   -15.0440 C.ar         1 FMN200   0.0000
    10 C6          40.8240   -10.9110   -14.8010 C.ar         1 FMN200   0.0000
    11 C7          40.8760   -11.3930   -13.4870 C.ar         1 FMN200   0.0000
    12 C7M         41.3490   -12.8070   -13.2530 C.3          1 FMN200   0.0000
    13 C8          40.4720   -10.5150   -12.3430 C.ar         1 FMN200   0.0000
    14 C8M         40.5020   -10.9820   -10.9070 C.3          1 FMN200   0.0000
    15 C9          40.0450    -9.2170   -12.5940 C.ar         1 FMN200   0.0000
    16 C9A         39.9800    -8.7350   -13.8980 C.ar         1 FMN200   0.0000
    17 N10         39.5360    -7.4110   -14.1490 N.pl3        1 FMN200   0.0000
    18 C10         39.5160    -6.9580   -15.4630 C.2          1 FMN200   0.0000
    19 C1'         39.1370    -6.4920   -13.0860 C.3          1 FMN200   0.0000
    20 C2'         37.7180    -6.7900   -12.6060 C.3          1 FMN200   0.0000
    21 O2'         36.7530    -6.4920   -13.6300 O.3          1 FMN200   0.0000
    22 C3'         37.4500    -5.9810   -11.3450 C.3          1 FMN200   0.0000
    23 O3'         38.1920    -6.5410   -10.2650 O.3          1 FMN200   0.0000
    24 C4'         35.9710    -6.0070   -10.9580 C.3          1 FMN200   0.0000
    25 O4'         35.7650    -5.0850    -9.8870 O.3          1 FMN200   0.0000
    26 C5'         35.5310    -7.4060   -10.5570 C.3          1 FMN200   0.0000
    27 O5'         34.0920    -7.3900   -10.4930 O.3          1 FMN200   0.0000
    28 P           33.3890    -8.7290    -9.9920 P.3          1 FMN200   0.0000
    29 O1P         33.9050    -8.9300    -8.5920 O.co2        1 FMN200   0.0000
    30 O2P         31.9190    -8.3460    -9.9990 O.co2        1 FMN200  -1.0000
    31 O3P         33.7430    -9.8210   -10.9640 O.co2        1 FMN200  -1.0000
    32 H1          39.3974    -5.6580   -19.0006 H            1 FMN200   0.0000
    33 H2          41.0966   -11.4991   -15.5624 H            1 FMN200   0.0000
    34 H7M1        41.3319   -13.0064   -12.2732 H            1 FMN200   0.0000
    35 H7M2        40.7461   -13.4440   -13.7334 H            1 FMN200   0.0000
    36 H7M3        42.2824   -12.9075   -13.5974 H            1 FMN200   0.0000
    37 H8M1        40.1945   -10.2417   -10.3092 H            1 FMN200   0.0000
    38 H8M2        39.8960   -11.7702   -10.8001 H            1 FMN200   0.0000
    39 H8M3        41.4354   -11.2433   -10.6609 H            1 FMN200   0.0000
    40 H9          39.7825    -8.6248   -11.8322 H            1 FMN200   0.0000
    41 H1'1        39.1744    -5.5549   -13.4332 H            1 FMN200   0.0000
    42 H1'2        39.7689    -6.5880   -12.3169 H            1 FMN200   0.0000
    43 H2'         37.6547    -7.7623   -12.3810 H            1 FMN200   0.0000
    44 H13         36.9415    -7.0500   -14.4382 H            1 FMN200   0.0000
    45 H3'         37.7384    -5.0346   -11.4903 H            1 FMN200   0.0000
    46 H15         38.8222    -5.8545    -9.9022 H            1 FMN200   0.0000
    47 H4'         35.4280    -5.7125   -11.7444 H            1 FMN200   0.0000
    48 H17         36.0234    -4.1658   -10.1841 H            1 FMN200   0.0000
    49 H5'1        35.9123    -7.6435    -9.6636 H            1 FMN200   0.0000
    50 H5'2        35.8375    -8.0712   -11.2378 H            1 FMN200   0.0000
@<TRIPOS>BOND
     1    1    2       1
     2    1   18       2
     3    2    3       2
     4    2    4       1
     5    4    5       1
     6    5    6       2
     7    5    7       1
     8    7    8       2
     9    7   18       1
    10    8    9       1
    11    9   10      ar
    12    9   16      ar
    13   10   11      ar
    14   11   12       1
    15   11   13      ar
    16   13   14       1
    17   13   15      ar
    18   15   16      ar
    19   16   17       1
    20   17   18       1
    21   17   19       1
    22   19   20       1
    23   20   21       1
    24   20   22       1
    25   22   23       1
    26   22   24       1
    27   24   25       1
    28   24   26       1
    29   26   27       1
    30   27   28       1
    31   28   29      ar
    32   28   30      ar
    33   28   31      ar
    34    4   32       1
    35   10   33       1
    36   12   34       1
    37   12   35       1
    38   12   36       1
    39   14   37       1
    40   14   38       1
    41   14   39       1
    42   15   40       1
    43   19   41       1
    44   19   42       1
    45   20   43       1
    46   21   44       1
    47   22   45       1
    48   23   46       1
    49   24   47       1
    50   25   48       1
    51   26   49       1
    52   26   50       1
@<TRIPOS>SUBSTRUCTURE
     1 FMN200      1 GROUP             4 A     FMN     0 **** FMN A 200
