@<TRIPOS>MOLECULE
1z0f_GDP_1_ligand
   40    42     1     0     0
SMALL
NO_CHARGES


@<TRIPOS>ATOM
     1 PB           7.2390     8.4030     2.2030 P.3          1 GDP200   0.0000
     2 O1B          6.8160     6.9700     2.4070 O.co2        1 GDP200   0.0000
     3 O2B          8.7210     8.5270     2.4710 O.co2        1 GDP200  -1.0000
     4 O3B          6.9400     8.7940     0.7660 O.co2        1 GDP200  -1.0000
     5 O3A          6.3790     9.3340     3.1950 O.3          1 GDP200   0.0000
     6 PA           6.9410    10.5310     4.1240 P.3          1 GDP200   0.0000
     7 O1A          7.8690    10.0070     5.1870 O.co2        1 GDP200   0.0000
     8 O2A          7.5990    11.6050     3.2990 O.co2        1 GDP200  -1.0000
     9 O5'          5.5910    11.1000     4.7910 O.3          1 GDP200   0.0000
    10 C5'          4.4860    11.5250     3.9850 C.3          1 GDP200   0.0000
    11 C4'          3.5810    12.4400     4.8040 C.3          1 GDP200   0.0000
    12 O4'          3.0340    11.7150     5.9160 O.3          1 GDP200   0.0000
    13 C3'          4.3300    13.6290     5.3880 C.3          1 GDP200   0.0000
    14 O3'          3.5060    14.7920     5.2600 O.3          1 GDP200   0.0000
    15 C2'          4.5210    13.2730     6.8540 C.3          1 GDP200   0.0000
    16 O2'          4.5380    14.4310     7.6940 O.3          1 GDP200   0.0000
    17 C1'          3.3360    12.3660     7.1540 C.3          1 GDP200   0.0000
    18 N9           3.6170    11.3290     8.1800 N.pl3        1 GDP200   0.0000
    19 C8           4.6330    10.4420     8.1590 C.2          1 GDP200   0.0000
    20 N7           4.5940     9.6210     9.2370 N.2          1 GDP200   0.0000
    21 C5           3.5200     9.9750     9.9690 C.2          1 GDP200   0.0000
    22 C6           2.8930     9.5220    11.2320 C.2          1 GDP200   0.0000
    23 O6           3.3720     8.5750    11.8800 O.2          1 GDP200   0.0000
    24 N1           1.7880    10.1490    11.6560 N.pl3        1 GDP200   0.0000
    25 C2           1.2340    11.1760    10.9760 C.2          1 GDP200   0.0000
    26 N2           0.1190    11.7530    11.4840 N.pl3        1 GDP200   0.0000
    27 N3           1.7530    11.6490     9.8090 N.2          1 GDP200   0.0000
    28 C4           2.8760    11.1000     9.2690 C.2          1 GDP200   0.0000
    29 H5'1         3.9665    10.7255     3.6834 H            1 GDP200   0.0000
    30 H5'2         4.8272    12.0214     3.1867 H            1 GDP200   0.0000
    31 H4'          2.8351    12.7708     4.2259 H            1 GDP200   0.0000
    32 H3'          5.2102    13.7594     4.9316 H            1 GDP200   0.0000
    33 H5           4.0849    15.6016     5.1626 H            1 GDP200   0.0000
    34 H2'          5.3731    12.7621     6.9679 H            1 GDP200   0.0000
    35 H7           3.9678    15.1454     7.2884 H            1 GDP200   0.0000
    36 H1'          2.5543    12.9194     7.4416 H            1 GDP200   0.0000
    37 H9           5.3265    10.3959     7.4400 H            1 GDP200   0.0000
    38 H10          1.3579     9.8459    12.5064 H            1 GDP200   0.0000
    39 H11         -0.3132    12.5154    11.0024 H            1 GDP200   0.0000
    40 H12         -0.2721    11.4166    12.3407 H            1 GDP200   0.0000
@<TRIPOS>BOND
     1    1    2      ar
     2    1    3      ar
     3    1    4      ar
     4    1    5       1
     5    5    6       1
     6    6    7      ar
     7    6    8      ar
     8    6    9       1
     9    9   10       1
    10   10   11       1
    11   11   12       1
    12   11   13       1
    13   12   17       1
    14   13   14       1
    15   13   15       1
    16   15   16       1
    17   15   17       1
    18   17   18       1
    19   18   19       1
    20   18   28       1
    21   19   20       2
    22   20   21       1
    23   21   22       1
    24   21   28       2
    25   22   23       2
    26   22   24       1
    27   24   25       1
    28   25   26       1
    29   25   27       2
    30   27   28       1
    31   26   40       1
    32   26   39       1
    33   24   38       1
    34   10   29       1
    35   10   30       1
    36   11   31       1
    37   13   32       1
    38   14   33       1
    39   15   34       1
    40   16   35       1
    41   17   36       1
    42   19   37       1
@<TRIPOS>SUBSTRUCTURE
     1 GDP200      1 GROUP             4 A     GDP     0 **** GDP A 200
