@<TRIPOS>MOLECULE
4ubs_DIF_1_ligand
   29    30     1     0     0
SMALL
NO_CHARGES


@<TRIPOS>ATOM
     1 C1         -40.7830    44.2590   -12.0070 C.ar         1 DIF502   0.0000
     2 C2         -39.5530    44.5360   -12.5800 C.ar         1 DIF502   0.0000
     3 CL2        -38.1830    45.0130   -11.5760 Cl           1 DIF502   0.0000
     4 C3         -39.3340    44.4350   -14.0440 C.ar         1 DIF502   0.0000
     5 C4         -40.5520    44.1530   -14.7790 C.ar         1 DIF502   0.0000
     6 CL4        -40.3700    44.0200   -16.5120 Cl           1 DIF502   0.0000
     7 C5         -41.7490    43.8350   -14.1680 C.ar         1 DIF502   0.0000
     8 C6         -41.8610    43.9040   -12.8000 C.ar         1 DIF502   0.0000
     9 N1         -38.2270    44.8950   -14.7260 N.pl3        1 DIF502   0.0000
    10 C7         -36.9450    46.2190   -16.2960 C.ar         1 DIF502   0.0000
    11 C8         -38.1740    46.0430   -15.4530 C.ar         1 DIF502   0.0000
    12 C9         -39.1700    47.0060   -15.5200 C.ar         1 DIF502   0.0000
    13 C10        -39.0350    48.1020   -16.3680 C.ar         1 DIF502   0.0000
    14 C11        -37.8770    48.2540   -17.1560 C.ar         1 DIF502   0.0000
    15 C12        -36.8360    47.3190   -17.1310 C.ar         1 DIF502   0.0000
    16 C13        -35.7940    45.2150   -16.2890 C.3          1 DIF502   0.0000
    17 C14        -34.9640    45.3420   -15.0300 C.2          1 DIF502   0.0000
    18 O1         -35.4010    44.8560   -13.9520 O.co2        1 DIF502   0.0000
    19 O2         -33.9130    45.9690   -15.2140 O.co2        1 DIF502  -1.0000
    20 H1         -40.8932    44.3157   -11.0147 H            1 DIF502   0.0000
    21 H2         -42.5338    43.5547   -14.7207 H            1 DIF502   0.0000
    22 H3         -42.7384    43.6937   -12.3688 H            1 DIF502   0.0000
    23 H4         -37.3965    44.3397   -14.6824 H            1 DIF502   0.0000
    24 H5         -39.9902    46.9125   -14.9557 H            1 DIF502   0.0000
    25 H6         -39.7638    48.7849   -16.4180 H            1 DIF502   0.0000
    26 H7         -37.7965    49.0538   -17.7509 H            1 DIF502   0.0000
    27 H8         -36.0273    47.4428   -17.7060 H            1 DIF502   0.0000
    28 H9         -35.2098    45.3831   -17.0830 H            1 DIF502   0.0000
    29 H10        -36.1685    44.2892   -16.3407 H            1 DIF502   0.0000
@<TRIPOS>BOND
     1    1    2      ar
     2    1    8      ar
     3    2    3       1
     4    2    4      ar
     5    4    5      ar
     6    4    9       1
     7    5    6       1
     8    5    7      ar
     9    7    8      ar
    10    9   11       1
    11   10   11      ar
    12   10   15      ar
    13   10   16       1
    14   11   12      ar
    15   12   13      ar
    16   13   14      ar
    17   14   15      ar
    18   16   17       1
    19   17   18      ar
    20   17   19      ar
    21    1   20       1
    22    7   21       1
    23    8   22       1
    24    9   23       1
    25   12   24       1
    26   13   25       1
    27   14   26       1
    28   15   27       1
    29   16   28       1
    30   16   29       1
@<TRIPOS>SUBSTRUCTURE
     1 DIF502      1 GROUP             4 A     DIF     0 **** DIF A 502
