@<TRIPOS>MOLECULE
3pqb_VGP_3_ligand
   66    70     1     0     0
SMALL
NO_CHARGES


@<TRIPOS>ATOM
     1 C           29.3150    -8.0520    95.0700 C.3          1 VGP500   0.0000
     2 O           25.0900    -4.3590   106.6750 O.3          1 VGP500   0.0000
     3 C01         23.9130    -7.9300   101.8810 C.ar         1 VGP500   0.0000
     4 O01         28.3320    -5.8250   100.9650 O.3          1 VGP500   0.0000
     5 C02         24.7470    -7.0990   102.6130 C.ar         1 VGP500   0.0000
     6 O02         23.4620    -9.0950    99.9120 O.3          1 VGP500   0.0000
     7 C03         25.9380    -6.6570   102.0760 C.ar         1 VGP500   0.0000
     8 O03         25.0840    -9.0850    98.0150 O.3          1 VGP500   0.0000
     9 C04         26.3450    -7.0430   100.7800 C.ar         1 VGP500   0.0000
    10 O04         28.9120    -7.6880    96.3190 O.3          1 VGP500   0.0000
    11 C05         25.5170    -7.8750   100.0440 C.ar         1 VGP500   0.0000
    12 O05         30.4450    -5.1590   101.5220 O.3          1 VGP500   0.0000
    13 C06         24.3020    -8.3010   100.6040 C.ar         1 VGP500   0.0000
    14 O06         26.0530    -5.3040   103.9580 O.3          1 VGP500   0.0000
    15 C07         27.5470    -6.6190   100.2080 C.ar         1 VGP500   0.0000
    16 O07         28.4360    -6.8710   105.8600 O.3          1 VGP500   0.0000
    17 C08         27.9350    -7.0020    98.9300 C.ar         1 VGP500   0.0000
    18 O08         27.7700    -7.9790   103.1600 O.3          1 VGP500   0.0000
    19 C09         27.0960    -7.8320    98.2130 C.ar         1 VGP500   0.0000
    20 C10         25.9050    -8.2560    98.7560 C.ar         1 VGP500   0.0000
    21 C11         29.5120    -5.2950   100.5520 C.3          1 VGP500   0.0000
    22 C12         29.9540    -5.7050    99.2000 C.ar         1 VGP500   0.0000
    23 C13         29.1690    -6.5280    98.4040 C.ar         1 VGP500   0.0000
    24 C14         31.1570    -5.2180    98.7640 C.ar         1 VGP500   0.0000
    25 C15         31.6210    -5.5520    97.5140 C.ar         1 VGP500   0.0000
    26 C16         30.8740    -6.3830    96.6950 C.ar         1 VGP500   0.0000
    27 C17         29.6470    -6.8750    97.1390 C.ar         1 VGP500   0.0000
    28 C18         32.9480    -4.9940    97.0650 C.3          1 VGP500   0.0000
    29 C19         33.3150    -3.5920    97.3860 C.3          1 VGP500   0.0000
    30 C20         27.7560    -6.7180   103.6640 C.3          1 VGP500   0.0000
    31 C21         26.8170    -5.8010   102.9500 C.3          1 VGP500   0.0000
    32 C22         27.3390    -6.7600   105.0650 C.3          1 VGP500   0.0000
    33 C23         26.5610    -5.5070   105.2220 C.3          1 VGP500   0.0000
    34 C24         25.3510    -5.5650   106.1160 C.3          1 VGP500   0.0000
    35 C25         25.5300    -6.5190   107.2030 C.3          1 VGP500   0.0000
    36 C26         25.6260    -9.7620    96.9470 C.3          1 VGP500   0.0000
    37 H1          28.6245    -8.6456    94.6567 H            1 VGP500   0.0000
    38 H2          29.4325    -7.2345    94.5062 H            1 VGP500   0.0000
    39 H3          30.1840    -8.5432    95.1301 H            1 VGP500   0.0000
    40 H4          24.1767    -4.0560   106.4027 H            1 VGP500   0.0000
    41 H5          23.0492    -8.2547   102.2664 H            1 VGP500   0.0000
    42 H6          24.4835    -6.8184   103.5359 H            1 VGP500   0.0000
    43 H7          23.7003    -9.3886    98.9863 H            1 VGP500   0.0000
    44 H8          30.6535    -6.0559   101.9121 H            1 VGP500   0.0000
    45 H9          28.1517    -6.8998   106.8183 H            1 VGP500   0.0000
    46 H10         28.4154    -8.5386   103.6799 H            1 VGP500   0.0000
    47 H11         27.3557    -8.1267    97.2934 H            1 VGP500   0.0000
    48 H12         29.2539    -4.3420   100.3932 H            1 VGP500   0.0000
    49 H13         31.6980    -4.6194    99.3548 H            1 VGP500   0.0000
    50 H14         31.2139    -6.6295    95.7874 H            1 VGP500   0.0000
    51 H15         32.9731    -5.0773    96.0688 H            1 VGP500   0.0000
    52 H16         33.6555    -5.5758    97.4661 H            1 VGP500   0.0000
    53 H17         34.2216    -3.3914    97.0148 H            1 VGP500   0.0000
    54 H18         32.6441    -2.9708    96.9811 H            1 VGP500   0.0000
    55 H19         33.3265    -3.4693    98.3784 H            1 VGP500   0.0000
    56 H20         28.6799    -6.3389   103.6127 H            1 VGP500   0.0000
    57 H21         27.2917    -5.0858   102.4370 H            1 VGP500   0.0000
    58 H22         26.7390    -7.5465   105.2117 H            1 VGP500   0.0000
    59 H23         27.1595    -4.7511   105.4872 H            1 VGP500   0.0000
    60 H24         24.5610    -5.8441   105.5701 H            1 VGP500   0.0000
    61 H25         25.7250    -7.4236   106.8239 H            1 VGP500   0.0000
    62 H26         26.2931    -6.2277   107.7799 H            1 VGP500   0.0000
    63 H27         24.6946    -6.5604   107.7512 H            1 VGP500   0.0000
    64 H28         24.9182   -10.3175    96.5106 H            1 VGP500   0.0000
    65 H29         25.9894    -9.1056    96.2859 H            1 VGP500   0.0000
    66 H30         26.3644   -10.3550    97.2682 H            1 VGP500   0.0000
@<TRIPOS>BOND
     1    1   10       1
     2    2   34       1
     3    3    5      ar
     4    3   13      ar
     5    4   15       1
     6    4   21       1
     7    5    7      ar
     8    6   13       1
     9    7    9      ar
    10    7   31       1
    11    8   20       1
    12    8   36       1
    13    9   11      ar
    14    9   15      ar
    15   10   27       1
    16   11   13      ar
    17   11   20      ar
    18   12   21       1
    19   14   31       1
    20   14   33       1
    21   15   17      ar
    22   16   32       1
    23   17   19      ar
    24   17   23       1
    25   18   30       1
    26   19   20      ar
    27   21   22       1
    28   22   23      ar
    29   22   24      ar
    30   23   27      ar
    31   24   25      ar
    32   25   26      ar
    33   25   28       1
    34   26   27      ar
    35   28   29       1
    36   30   31       1
    37   30   32       1
    38   32   33       1
    39   33   34       1
    40   34   35       1
    41    1   37       1
    42    1   38       1
    43    1   39       1
    44    2   40       1
    45    3   41       1
    46    5   42       1
    47    6   43       1
    48   12   44       1
    49   16   45       1
    50   18   46       1
    51   19   47       1
    52   21   48       1
    53   24   49       1
    54   26   50       1
    55   28   51       1
    56   28   52       1
    57   29   53       1
    58   29   54       1
    59   29   55       1
    60   30   56       1
    61   31   57       1
    62   32   58       1
    63   33   59       1
    64   34   60       1
    65   35   61       1
    66   35   62       1
    67   35   63       1
    68   36   64       1
    69   36   65       1
    70   36   66       1
@<TRIPOS>SUBSTRUCTURE
     1 VGP500      1 GROUP             4 C     VGP     0 **** VGP C 500
