@<TRIPOS>MOLECULE
1fi7_IMD_1_ligand
    9     9     1     0     0
SMALL
NO_CHARGES


@<TRIPOS>ATOM
     1 N1           3.7590     5.0210     0.4580 N.pl3        1 IMD105   0.0000
     2 C2           3.9020     3.7000     0.2480 C.2          1 IMD105   0.0000
     3 N3           3.3870     2.9890     1.2630 N.2          1 IMD105   0.0000
     4 C4           2.8920     3.9320     2.1670 C.2          1 IMD105   0.0000
     5 C5           3.1180     5.1870     1.6650 C.2          1 IMD105   0.0000
     6 H1           4.0637     5.7515    -0.1531 H            1 IMD105   0.0000
     7 H2           4.3356     3.2999    -0.5594 H            1 IMD105   0.0000
     8 H3           2.4459     3.7252     3.0377 H            1 IMD105   0.0000
     9 H4           2.8661     6.0552     2.0926 H            1 IMD105   0.0000
@<TRIPOS>BOND
     1    1    2       1
     2    1    5       1
     3    2    3       2
     4    3    4       1
     5    4    5       2
     6    1    6       1
     7    2    7       1
     8    4    8       1
     9    5    9       1
@<TRIPOS>SUBSTRUCTURE
     1 IMD105      1 GROUP             4 A     IMD     0 **** IMD A 105
