@<TRIPOS>MOLECULE
3mel_TPP_2_ligand
   54    55     1     0     0
SMALL
NO_CHARGES


@<TRIPOS>ATOM
     1 N1'         -0.8240    13.0540    59.8890 N.4          1 TPP902   1.0000
     2 C2'          0.1610    13.4770    60.9080 C.3          1 TPP902   0.0000
     3 CM2          1.5010    13.9060    60.2950 C.3          1 TPP902   0.0000
     4 N3'          0.2610    12.5560    62.0320 N.4          1 TPP902   1.0000
     5 C4'         -0.9870    12.0490    62.6360 C.3          1 TPP902   0.0000
     6 N4'         -0.6510    11.0570    63.6580 N.4          1 TPP902   1.0000
     7 C5'         -1.8190    11.3850    61.4850 C.3          1 TPP902   0.0000
     8 C6'         -2.0630    12.4930    60.4360 C.3          1 TPP902   0.0000
     9 C7'         -3.1260    10.7530    62.0690 C.3          1 TPP902   0.0000
    10 N3          -2.8180     9.5420    62.8920 N.3          1 TPP902   0.0000
    11 C2          -1.6930     8.7340    62.3870 C.3          1 TPP902   0.0000
    12 S1          -2.3330     7.1130    61.8750 S.3          1 TPP902   0.0000
    13 C5          -4.0490     7.4150    62.4440 C.3          1 TPP902   0.0000
    14 C4          -3.9740     8.6800    63.3450 C.3          1 TPP902   0.0000
    15 CM4         -5.2710     9.4700    63.4680 C.3          1 TPP902   0.0000
    16 C6          -4.7610     6.1870    63.0240 C.3          1 TPP902   0.0000
    17 C7          -5.5990     5.4100    61.9890 C.3          1 TPP902   0.0000
    18 O7          -5.5350     4.0170    62.2770 O.3          1 TPP902   0.0000
    19 PA          -6.4650     2.8910    61.6330 P.3          1 TPP902   0.0000
    20 O1A         -7.0940     3.7980    60.5080 O.co2        1 TPP902   0.0000
    21 O2A         -7.2740     2.0040    62.4780 O.co2        1 TPP902  -1.0000
    22 O3A         -5.8140     1.7210    60.7740 O.3          1 TPP902   0.0000
    23 PB          -6.3460     0.8120    59.5940 P.3          1 TPP902   0.0000
    24 O1B         -5.1050     0.0990    58.9570 O.co2        1 TPP902   0.0000
    25 O2B         -6.9390    -0.4510    60.3380 O.co2        1 TPP902  -1.0000
    26 O3B         -7.4300     1.3470    58.7510 O.co2        1 TPP902  -1.0000
    27 H1'1        -0.3959    12.3599    59.3102 H            1 TPP902   0.0000
    28 H2'         -0.2203    14.3149    61.2985 H            1 TPP902   0.0000
    29 HM21         2.1281    14.1812    61.0238 H            1 TPP902   0.0000
    30 HM22         1.8956    13.1402    59.7872 H            1 TPP902   0.0000
    31 HM23         1.3524    14.6761    59.6747 H            1 TPP902   0.0000
    32 H3'1         0.7701    13.0246    62.7540 H            1 TPP902   0.0000
    33 H4'         -1.5031    12.8023    63.0437 H            1 TPP902   0.0000
    34 H4'1        -0.5371    11.5131    64.5406 H            1 TPP902   0.0000
    35 H4'2        -1.3872    10.3834    63.7235 H            1 TPP902   0.0000
    36 H5'         -1.2701    10.6611    61.0671 H            1 TPP902   0.0000
    37 H6'1        -2.5961    12.1063    59.6835 H            1 TPP902   0.0000
    38 H6'2        -2.5823    13.2305    60.8678 H            1 TPP902   0.0000
    39 H7'1        -3.7273    10.4906    61.3143 H            1 TPP902   0.0000
    40 H7'2        -3.5874    11.4293    62.6432 H            1 TPP902   0.0000
    41 H15         -1.0119     8.6150    63.1095 H            1 TPP902   0.0000
    42 H16         -1.2722     9.1931    61.6046 H            1 TPP902   0.0000
    43 H17         -4.5690     7.6813    61.6324 H            1 TPP902   0.0000
    44 H18         -3.7472     8.3607    64.2651 H            1 TPP902   0.0000
    45 HM41        -6.0049     8.8611    63.7691 H            1 TPP902   0.0000
    46 HM42        -5.1519    10.2044    64.1362 H            1 TPP902   0.0000
    47 HM43        -5.5075     9.8630    62.5794 H            1 TPP902   0.0000
    48 H22         -5.3686     6.4915    63.7576 H            1 TPP902   0.0000
    49 H23         -4.0698     5.5690    63.3986 H            1 TPP902   0.0000
    50 H24         -5.2362     5.5780    61.0724 H            1 TPP902   0.0000
    51 H25         -6.5500     5.7161    62.0324 H            1 TPP902   0.0000
    52 H1'2        -1.0608    13.8513    59.3338 H            1 TPP902   0.0000
    53 H3'2         0.7818    11.7620    61.7184 H            1 TPP902   0.0000
    54 H4'3         0.2009    10.5966    63.4083 H            1 TPP902   0.0000
@<TRIPOS>BOND
     1    1    2       1
     2    1    8       1
     3    2    3       1
     4    2    4       1
     5    4    5       1
     6    5    6       1
     7    5    7       1
     8    7    8       1
     9    7    9       1
    10    9   10       1
    11   10   11       1
    12   10   14       1
    13   11   12       1
    14   12   13       1
    15   13   14       1
    16   13   16       1
    17   14   15       1
    18   16   17       1
    19   17   18       1
    20   18   19       1
    21   19   20      ar
    22   19   21      ar
    23   19   22       1
    24   22   23       1
    25   23   24      ar
    26   23   25      ar
    27   23   26      ar
    28    1   27       1
    29    2   28       1
    30    3   29       1
    31    3   30       1
    32    3   31       1
    33    4   32       1
    34    5   33       1
    35    6   34       1
    36    6   35       1
    37    7   36       1
    38    8   37       1
    39    8   38       1
    40    9   39       1
    41    9   40       1
    42   11   41       1
    43   11   42       1
    44   13   43       1
    45   14   44       1
    46   15   45       1
    47   15   46       1
    48   15   47       1
    49   16   48       1
    50   16   49       1
    51   17   50       1
    52   17   51       1
    53    1   52       1
    54    6   54       1
    55    4   53       1
@<TRIPOS>SUBSTRUCTURE
     1 TPP902      1 GROUP             4 D     TPP     0 **** TPP D 902
