@<TRIPOS>MOLECULE
5c3j_FAD_3_ligand
   84    89     1     0     0
SMALL
NO_CHARGES


@<TRIPOS>ATOM
     1 PA          20.4640   -54.2340    91.7410 P.3          1 FAD702   0.0000
     2 O1A         20.2680   -54.1450    93.2270 O.co2        1 FAD702   0.0000
     3 O2A         21.4100   -55.2530    91.1750 O.co2        1 FAD702  -1.0000
     4 O5B         20.8760   -52.7950    91.2020 O.3          1 FAD702   0.0000
     5 C5B         20.0630   -51.6680    91.4630 C.3          1 FAD702   0.0000
     6 C4B         20.5890   -50.5270    90.6150 C.3          1 FAD702   0.0000
     7 O4B         19.8320   -49.3580    90.9000 O.3          1 FAD702   0.0000
     8 C3B         22.0350   -50.1630    90.9110 C.3          1 FAD702   0.0000
     9 O3B         22.7040   -49.9290    89.6880 O.3          1 FAD702   0.0000
    10 C2B         21.9950   -48.8540    91.6550 C.3          1 FAD702   0.0000
    11 O2B         23.1320   -48.0680    91.3380 O.3          1 FAD702   0.0000
    12 C1B         20.7210   -48.2410    91.1150 C.3          1 FAD702   0.0000
    13 N9A         20.1370   -47.2230    92.0260 N.pl3        1 FAD702   0.0000
    14 C8A         19.5070   -47.4760    93.1860 C.2          1 FAD702   0.0000
    15 N7A         19.0820   -46.3160    93.7560 N.2          1 FAD702   0.0000
    16 C5A         19.4360   -45.3090    92.9460 C.ar         1 FAD702   0.0000
    17 C6A         19.3100   -43.8460    92.9590 C.ar         1 FAD702   0.0000
    18 N6A         18.6890   -43.2360    93.9940 N.pl3        1 FAD702   0.0000
    19 N1A         19.8310   -43.1520    91.9150 N.ar         1 FAD702   0.0000
    20 C2A         20.4440   -43.7460    90.8820 C.ar         1 FAD702   0.0000
    21 N3A         20.5850   -45.0810    90.8250 N.ar         1 FAD702   0.0000
    22 C4A         20.1210   -45.9040    91.7990 C.ar         1 FAD702   0.0000
    23 N1          18.9870   -64.0920    92.6280 N.2          1 FAD702   0.0000
    24 C2          19.0900   -65.1490    91.8180 C.2          1 FAD702   0.0000
    25 O2          18.1720   -65.2800    90.9850 O.2          1 FAD702   0.0000
    26 N3          20.1070   -66.0200    91.8900 N.pl3        1 FAD702   0.0000
    27 C4          21.0880   -65.8770    92.7860 C.2          1 FAD702   0.0000
    28 O4          22.0530   -66.6690    92.8840 O.2          1 FAD702   0.0000
    29 C4X         21.0290   -64.7390    93.6980 C.2          1 FAD702   0.0000
    30 N5          21.9720   -64.5590    94.6150 N.2          1 FAD702   0.0000
    31 C5X         21.9220   -63.5060    95.4500 C.ar         1 FAD702   0.0000
    32 C6          22.9610   -63.3640    96.3610 C.ar         1 FAD702   0.0000
    33 C7          22.9480   -62.2960    97.2230 C.ar         1 FAD702   0.0000
    34 C7M         24.0300   -62.1050    98.2480 C.3          1 FAD702   0.0000
    35 C8          21.8220   -61.3380    97.1420 C.ar         1 FAD702   0.0000
    36 C8M         21.7910   -60.2320    98.0990 C.3          1 FAD702   0.0000
    37 C9          20.7930   -61.4580    96.2530 C.ar         1 FAD702   0.0000
    38 C9A         20.7970   -62.5230    95.3830 C.ar         1 FAD702   0.0000
    39 N10         19.7750   -62.7110    94.4310 N.pl3        1 FAD702   0.0000
    40 C10         19.8960   -63.8220    93.5710 C.2          1 FAD702   0.0000
    41 C1'         18.6570   -61.7780    94.2280 C.3          1 FAD702   0.0000
    42 C2'         19.0710   -60.9470    92.9870 C.3          1 FAD702   0.0000
    43 O2'         20.4940   -60.8090    92.9380 O.3          1 FAD702   0.0000
    44 C3'         18.5440   -59.5220    92.8970 C.3          1 FAD702   0.0000
    45 O3'         17.1400   -59.4700    93.1410 O.3          1 FAD702   0.0000
    46 C4'         18.7910   -58.9250    91.5140 C.3          1 FAD702   0.0000
    47 O4'         20.1820   -59.0590    91.2040 O.3          1 FAD702   0.0000
    48 C5'         18.3740   -57.4580    91.4500 C.3          1 FAD702   0.0000
    49 O5'         18.9130   -56.8120    90.3050 O.3          1 FAD702   0.0000
    50 P           18.4560   -55.3190    89.9450 P.3          1 FAD702   0.0000
    51 O1P         19.1400   -54.6660    88.7430 O.co2        1 FAD702   0.0000
    52 O2P         16.9450   -55.3320    90.0340 O.co2        1 FAD702  -1.0000
    53 O3P         18.9610   -54.4400    91.2030 O.3          1 FAD702   0.0000
    54 H5B1        20.1141   -51.4261    92.4320 H            1 FAD702   0.0000
    55 H5B2        19.1139   -51.8667    91.2187 H            1 FAD702   0.0000
    56 H4B         20.4942   -50.7588    89.6469 H            1 FAD702   0.0000
    57 H3B         22.4895   -50.8748    91.4466 H            1 FAD702   0.0000
    58 H5          23.4660   -50.5702    89.5969 H            1 FAD702   0.0000
    59 H2B         21.9288   -49.0053    92.6413 H            1 FAD702   0.0000
    60 H7          23.1459   -47.8830    90.3554 H            1 FAD702   0.0000
    61 H1B         20.9179   -47.8108    90.2340 H            1 FAD702   0.0000
    62 H8A         19.3701   -48.3871    93.5748 H            1 FAD702   0.0000
    63 H6A1        18.6007   -42.2400    94.0074 H            1 FAD702   0.0000
    64 H6A2        18.3181   -43.7810    94.7460 H            1 FAD702   0.0000
    65 H2A         20.8042   -43.1837    90.1376 H            1 FAD702   0.0000
    66 H13         20.1319   -66.7948    91.2583 H            1 FAD702   0.0000
    67 H14         23.7068   -64.0296    96.3884 H            1 FAD702   0.0000
    68 H7M1        23.8457   -61.2765    98.7768 H            1 FAD702   0.0000
    69 H7M2        24.0509   -62.8943    98.8616 H            1 FAD702   0.0000
    70 H7M3        24.9134   -62.0171    97.7877 H            1 FAD702   0.0000
    71 H8M1        20.9825   -59.6681    97.9307 H            1 FAD702   0.0000
    72 H8M2        21.7550   -60.5971    99.0293 H            1 FAD702   0.0000
    73 H8M3        22.6143   -59.6748    97.9912 H            1 FAD702   0.0000
    74 H21         20.0525   -60.7862    96.2348 H            1 FAD702   0.0000
    75 H1'1        18.5392   -61.1875    95.0264 H            1 FAD702   0.0000
    76 H1'2        17.8075   -62.2759    94.0534 H            1 FAD702   0.0000
    77 H2'         18.7770   -61.4407    92.1686 H            1 FAD702   0.0000
    78 H25         20.7493   -60.2717    92.1342 H            1 FAD702   0.0000
    79 H3'         19.0118   -58.9606    93.5797 H            1 FAD702   0.0000
    80 H27         16.9055   -58.5889    93.5518 H            1 FAD702   0.0000
    81 H4'         18.2601   -59.4403    90.8413 H            1 FAD702   0.0000
    82 H29         20.4644   -58.3078    90.6074 H            1 FAD702   0.0000
    83 H5'1        18.7022   -56.9909    92.2711 H            1 FAD702   0.0000
    84 H5'2        17.3761   -57.4053    91.4130 H            1 FAD702   0.0000
@<TRIPOS>BOND
     1    1    2      ar
     2    1    3      ar
     3    1    4       1
     4    1   53       1
     5    4    5       1
     6    5    6       1
     7    6    7       1
     8    6    8       1
     9    7   12       1
    10    8    9       1
    11    8   10       1
    12   10   11       1
    13   10   12       1
    14   12   13       1
    15   13   14       1
    16   13   22       1
    17   14   15       2
    18   15   16       1
    19   16   17      ar
    20   16   22      ar
    21   17   18       1
    22   17   19      ar
    23   19   20      ar
    24   20   21      ar
    25   21   22      ar
    26   23   24       1
    27   23   40       2
    28   24   25       2
    29   24   26       1
    30   26   27       1
    31   27   28       2
    32   27   29       1
    33   29   30       2
    34   29   40       1
    35   30   31       1
    36   31   32      ar
    37   31   38      ar
    38   32   33      ar
    39   33   34       1
    40   33   35      ar
    41   35   36       1
    42   35   37      ar
    43   37   38      ar
    44   38   39       1
    45   39   40       1
    46   39   41       1
    47   41   42       1
    48   42   43       1
    49   42   44       1
    50   44   45       1
    51   44   46       1
    52   46   47       1
    53   46   48       1
    54   48   49       1
    55   49   50       1
    56   50   51      ar
    57   50   52      ar
    58   50   53       1
    59   48   84       1
    60    5   54       1
    61    5   55       1
    62    6   56       1
    63    8   57       1
    64    9   58       1
    65   10   59       1
    66   11   60       1
    67   12   61       1
    68   14   62       1
    69   18   63       1
    70   18   64       1
    71   20   65       1
    72   26   66       1
    73   32   67       1
    74   34   68       1
    75   34   69       1
    76   34   70       1
    77   36   71       1
    78   36   72       1
    79   36   73       1
    80   37   74       1
    81   41   75       1
    82   41   76       1
    83   42   77       1
    84   43   78       1
    85   44   79       1
    86   45   80       1
    87   46   81       1
    88   47   82       1
    89   48   83       1
@<TRIPOS>SUBSTRUCTURE
     1 FAD702      1 GROUP             4 E     FAD     0 **** FAD E 702
