@<TRIPOS>MOLECULE
4cym_GCP_1_ligand
   46    48     1     0     0
SMALL
NO_CHARGES


@<TRIPOS>ATOM
     1 PG           9.7330   -13.2210    13.2090 P.3          1 GCP1198   0.0000
     2 O1G          9.8480   -14.3970    12.3310 O.co2        1 GCP1198   0.0000
     3 O2G          8.1900   -13.0400    13.5160 O.co2        1 GCP1198  -1.0000
     4 O3G         10.1210   -11.8500    12.5250 O.co2        1 GCP1198  -1.0000
     5 C3B         10.5520   -13.6030    14.7030 C.3          1 GCP1198   0.0000
     6 PB          12.1940   -14.1210    14.3120 P.3          1 GCP1198   0.0000
     7 O1B         12.2010   -15.5750    13.9740 O.co2        1 GCP1198   0.0000
     8 O2B         12.9030   -13.4140    13.1060 O.co2        1 GCP1198  -1.0000
     9 O3A         12.9650   -13.7510    15.6760 O.3          1 GCP1198   0.0000
    10 PA          14.1670   -12.6890    15.7790 P.3          1 GCP1198   0.0000
    11 O1A         15.2940   -13.1610    14.9000 O.co2        1 GCP1198   0.0000
    12 O2A         13.6470   -11.2690    15.6590 O.co2        1 GCP1198  -1.0000
    13 O5'         14.5350   -13.0220    17.2860 O.3          1 GCP1198   0.0000
    14 C5'         13.4440   -12.9240    18.2190 C.3          1 GCP1198   0.0000
    15 C4'         13.9650   -12.5540    19.6040 C.3          1 GCP1198   0.0000
    16 O4'         14.7080   -13.6460    20.1130 O.3          1 GCP1198   0.0000
    17 C3'         14.9270   -11.3690    19.5420 C.3          1 GCP1198   0.0000
    18 O3'         14.7700   -10.4620    20.6030 O.3          1 GCP1198   0.0000
    19 C2'         16.2780   -12.0000    19.6640 C.3          1 GCP1198   0.0000
    20 O2'         17.1840   -11.1680    20.3520 O.3          1 GCP1198   0.0000
    21 C1'         15.9960   -13.2210    20.4710 C.3          1 GCP1198   0.0000
    22 N9          16.9310   -14.2370    20.0510 N.pl3        1 GCP1198   0.0000
    23 C8          17.0960   -14.6850    18.8220 C.2          1 GCP1198   0.0000
    24 N7          18.0450   -15.6420    18.7790 N.2          1 GCP1198   0.0000
    25 C5          18.4870   -15.7850    19.9900 C.2          1 GCP1198   0.0000
    26 C6          19.4880   -16.6330    20.5840 C.2          1 GCP1198   0.0000
    27 O6          20.1750   -17.4490    19.8980 O.2          1 GCP1198   0.0000
    28 N1          19.6200   -16.4810    21.9020 N.pl3        1 GCP1198   0.0000
    29 C2          18.9190   -15.6010    22.6400 C.2          1 GCP1198   0.0000
    30 N2          19.1850   -15.5410    23.9540 N.pl3        1 GCP1198   0.0000
    31 N3          17.9850   -14.7720    22.1380 N.2          1 GCP1198   0.0000
    32 C4          17.7510   -14.8550    20.8330 C.2          1 GCP1198   0.0000
    33 H3B1        10.0680   -14.3391    15.1761 H            1 GCP1198   0.0000
    34 H3B2        10.5826   -12.7935    15.2893 H            1 GCP1198   0.0000
    35 H5'1        12.9717   -13.8041    18.2683 H            1 GCP1198   0.0000
    36 H5'2        12.8056   -12.2201    17.9076 H            1 GCP1198   0.0000
    37 H4'         13.2007   -12.3445    20.2139 H            1 GCP1198   0.0000
    38 H3'         14.8414   -10.8967    18.6647 H            1 GCP1198   0.0000
    39 H7          15.6249   -10.4003    21.1180 H            1 GCP1198   0.0000
    40 H2'         16.6367   -12.2458    18.7635 H            1 GCP1198   0.0000
    41 H9          17.6562   -10.5768    19.6981 H            1 GCP1198   0.0000
    42 H1'         16.0650   -13.0390    21.4519 H            1 GCP1198   0.0000
    43 H11         16.5850   -14.3583    18.0269 H            1 GCP1198   0.0000
    44 H12         20.2848   -17.0601    22.3739 H            1 GCP1198   0.0000
    45 H13         18.6854   -14.8999    24.5365 H            1 GCP1198   0.0000
    46 H14         19.8828   -16.1374    24.3506 H            1 GCP1198   0.0000
@<TRIPOS>BOND
     1    1    2      ar
     2    1    3      ar
     3    1    4      ar
     4    1    5       1
     5    5    6       1
     6    6    7      ar
     7    6    8      ar
     8    6    9       1
     9    9   10       1
    10   10   11      ar
    11   10   12      ar
    12   10   13       1
    13   13   14       1
    14   14   15       1
    15   15   16       1
    16   15   17       1
    17   16   21       1
    18   17   18       1
    19   17   19       1
    20   19   20       1
    21   19   21       1
    22   21   22       1
    23   22   23       1
    24   22   32       1
    25   23   24       2
    26   24   25       1
    27   25   26       1
    28   25   32       2
    29   26   27       2
    30   26   28       1
    31   28   29       1
    32   29   30       1
    33   29   31       2
    34   31   32       1
    35   30   46       1
    36   30   45       1
    37    5   33       1
    38    5   34       1
    39   28   44       1
    40   23   43       1
    41   14   35       1
    42   14   36       1
    43   15   37       1
    44   17   38       1
    45   18   39       1
    46   19   40       1
    47   20   41       1
    48   21   42       1
@<TRIPOS>SUBSTRUCTURE
     1 GCP1198     1 GROUP             4 A     GCP     0 **** GCP A1198
