@<TRIPOS>MOLECULE
3uj8_SFG_1_ligand
   51    53     1     0     0
SMALL
NO_CHARGES


@<TRIPOS>ATOM
     1 N           20.9830    21.7010    16.5280 N.4          1 SFG300   1.0000
     2 CA          20.7670    20.8610    15.4240 C.3          1 SFG300   0.0000
     3 C           19.2870    20.8970    15.0800 C.2          1 SFG300   0.0000
     4 O           18.4860    21.5240    15.8200 O.co2        1 SFG300   0.0000
     5 OXT         18.8450    20.3410    14.0070 O.co2        1 SFG300  -1.0000
     6 CB          21.2850    19.4200    15.7530 C.3          1 SFG300   0.0000
     7 CG          20.5340    18.6360    16.8870 C.3          1 SFG300   0.0000
     8 CD          21.1440    17.3370    17.3210 C.3          1 SFG300   0.0000
     9 NE          20.1750    16.6250    18.1540 N.4          1 SFG300   1.0000
    10 C5'         22.4420    17.5280    18.0880 C.3          1 SFG300   0.0000
    11 C4'         23.7280    17.6130    17.4340 C.3          1 SFG300   0.0000
    12 O4'         24.7410    17.7770    18.4800 O.3          1 SFG300   0.0000
    13 C3'         24.1570    16.4200    16.6430 C.3          1 SFG300   0.0000
    14 O3'         24.2210    16.7660    15.2970 O.3          1 SFG300   0.0000
    15 C2'         25.4570    15.9950    17.2490 C.3          1 SFG300   0.0000
    16 O2'         26.3950    15.5040    16.3530 O.3          1 SFG300   0.0000
    17 C1'         25.9230    17.2260    17.9930 C.3          1 SFG300   0.0000
    18 N9          26.8580    16.9680    19.1030 N.pl3        1 SFG300   0.0000
    19 C8          26.7530    16.0740    20.0920 C.2          1 SFG300   0.0000
    20 N7          27.8170    16.2030    20.8880 N.2          1 SFG300   0.0000
    21 C5          28.5980    17.1940    20.4090 C.ar         1 SFG300   0.0000
    22 C6          29.8210    17.7370    20.8260 C.ar         1 SFG300   0.0000
    23 N6          30.4780    17.2560    21.9190 N.pl3        1 SFG300   0.0000
    24 N1          30.3480    18.7400    20.1010 N.ar         1 SFG300   0.0000
    25 C2          29.7250    19.1920    18.9960 C.ar         1 SFG300   0.0000
    26 N3          28.5610    18.6870    18.5610 N.ar         1 SFG300   0.0000
    27 C4          27.9770    17.6860    19.2540 C.ar         1 SFG300   0.0000
    28 H1          21.9532    21.6906    16.7700 H            1 SFG300   0.0000
    29 H2          20.7073    22.6338    16.2961 H            1 SFG300   0.0000
    30 HA          21.2846    21.2167    14.6458 H            1 SFG300   0.0000
    31 HB1         22.2442    19.4986    16.0246 H            1 SFG300   0.0000
    32 HB2         21.2190    18.8770    14.9159 H            1 SFG300   0.0000
    33 HG1         19.6086    18.4428    16.5609 H            1 SFG300   0.0000
    34 HG2         20.4873    19.2322    17.6885 H            1 SFG300   0.0000
    35 HD          21.3320    16.7856    16.5082 H            1 SFG300   0.0000
    36 HE1         20.5674    15.7549    18.4521 H            1 SFG300   0.0000
    37 HE2         19.9510    17.1812    18.9543 H            1 SFG300   0.0000
    38 H5'1        22.5044    16.7582    18.7233 H            1 SFG300   0.0000
    39 H5'2        22.3366    18.3782    18.6038 H            1 SFG300   0.0000
    40 H4'         23.7391    18.4181    16.8409 H            1 SFG300   0.0000
    41 H3'         23.4852    15.6889    16.7620 H            1 SFG300   0.0000
    42 H15         24.8817    17.5066    15.1742 H            1 SFG300   0.0000
    43 H2'         25.2665    15.2798    17.9215 H            1 SFG300   0.0000
    44 H17         26.6130    16.2095    15.6786 H            1 SFG300   0.0000
    45 H1'         26.3437    17.8633    17.3474 H            1 SFG300   0.0000
    46 H19         26.0057    15.4209    20.2143 H            1 SFG300   0.0000
    47 H20         31.3495    17.6603    22.1966 H            1 SFG300   0.0000
    48 H21         30.0886    16.4988    22.4433 H            1 SFG300   0.0000
    49 H22         30.1480    19.9354    18.4779 H            1 SFG300   0.0000
    50 H23         20.4424    21.3769    17.3043 H            1 SFG300   0.0000
    51 HE3         19.3441    16.4522    17.6251 H            1 SFG300   0.0000
@<TRIPOS>BOND
     1    1    2       1
     2    2    3       1
     3    2    6       1
     4    3    4      ar
     5    3    5      ar
     6    6    7       1
     7    7    8       1
     8    8    9       1
     9    8   10       1
    10   10   11       1
    11   11   12       1
    12   11   13       1
    13   12   17       1
    14   13   14       1
    15   13   15       1
    16   15   16       1
    17   15   17       1
    18   17   18       1
    19   18   19       1
    20   18   27       1
    21   19   20       2
    22   20   21       1
    23   21   22      ar
    24   21   27      ar
    25   22   23       1
    26   22   24      ar
    27   24   25      ar
    28   25   26      ar
    29   26   27      ar
    30    1   28       1
    31    1   29       1
    32    2   30       1
    33    1   50       1
    34    6   31       1
    35    6   32       1
    36    7   33       1
    37    7   34       1
    38    8   35       1
    39    9   36       1
    40    9   37       1
    41   10   38       1
    42   10   39       1
    43   11   40       1
    44   13   41       1
    45   14   42       1
    46   15   43       1
    47   16   44       1
    48   17   45       1
    49   19   46       1
    50   23   47       1
    51   23   48       1
    52   25   49       1
    53    9   51       1
@<TRIPOS>SUBSTRUCTURE
     1 SFG300      1 GROUP             4 A     SFG     0 **** SFG A 300
