@<TRIPOS>MOLECULE
1lnm_DTX_1_ligand
   61    65     1     0     0
SMALL
NO_CHARGES


@<TRIPOS>ATOM
     1 O23         14.7810   -21.2920    37.1060 O.3          1 DTX700   0.0000
     2 C23         14.0400   -22.2080    37.0350 C.2          1 DTX700   0.0000
     3 C22         12.9040   -22.5250    36.1640 C.2          1 DTX700   0.0000
     4 O21         14.2300   -23.2610    37.9230 O.2          1 DTX700   0.0000
     5 C21         13.2240   -24.2650    37.6620 C.2          1 DTX700   0.0000
     6 C20         12.4200   -23.7400    36.5320 C.2          1 DTX700   0.0000
     7 C17         11.2030   -24.5070    36.1160 C.3          1 DTX700   0.0000
     8 C16         11.5560   -26.0430    36.1120 C.3          1 DTX700   0.0000
     9 C13          9.9670   -24.3170    36.9940 C.3          1 DTX700   0.0000
    10 C12          8.7370   -24.1550    36.0510 C.3          1 DTX700   0.0000
    11 C11          7.3760   -24.3510    36.7060 C.3          1 DTX700   0.0000
    12 C18         10.0700   -23.1180    37.9310 C.3          1 DTX700   0.0000
    13 C14          9.7900   -25.7260    37.6820 C.3          1 DTX700   0.0000
    14 C15         10.2620   -26.6830    36.6120 C.3          1 DTX700   0.0000
    15 O14         10.8260   -25.8640    38.7020 O.3          1 DTX700   0.0000
    16 C8           8.4190   -25.9590    38.3610 C.3          1 DTX700   0.0000
    17 C7           8.3930   -27.3110    39.0790 C.3          1 DTX700   0.0000
    18 C9           7.2220   -25.7460    37.3730 C.3          1 DTX700   0.0000
    19 C10          5.8660   -25.9760    38.1060 C.3          1 DTX700   0.0000
    20 C1           4.7060   -25.8560    37.0780 C.3          1 DTX700   0.0000
    21 C19          5.5120   -24.8810    39.1660 C.3          1 DTX700   0.0000
    22 C5           5.8640   -27.3860    38.6570 C.3          1 DTX700   0.0000
    23 C6           7.0040   -27.6710    39.6460 C.3          1 DTX700   0.0000
    24 C4           5.9350   -28.4260    37.5280 C.3          1 DTX700   0.0000
    25 C3           4.8350   -28.2580    36.4950 C.3          1 DTX700   0.0000
    26 C2           4.8600   -26.8500    35.9340 C.3          1 DTX700   0.0000
    27 O32          3.5550   -28.4830    37.1580 O.3          1 DTX700   0.0000
    28 H1          15.5037   -21.2859    37.7972 H            1 DTX700   0.0000
    29 H2          12.5481   -21.9484    35.4285 H            1 DTX700   0.0000
    30 H3          13.0966   -25.1325    38.1429 H            1 DTX700   0.0000
    31 H4          10.9677   -24.2377    35.1821 H            1 DTX700   0.0000
    32 H5          12.3181   -26.2400    36.7288 H            1 DTX700   0.0000
    33 H6          11.7826   -26.3590    35.1907 H            1 DTX700   0.0000
    34 H7           8.8235   -24.8257    35.3144 H            1 DTX700   0.0000
    35 H8           8.7635   -23.2323    35.6664 H            1 DTX700   0.0000
    36 H9           6.6680   -24.2516    36.0068 H            1 DTX700   0.0000
    37 H10          7.2543   -23.6473    37.4060 H            1 DTX700   0.0000
    38 H11          9.2344   -23.0480    38.4759 H            1 DTX700   0.0000
    39 H12         10.8553   -23.2363    38.5387 H            1 DTX700   0.0000
    40 H13         10.1878   -22.2835    37.3928 H            1 DTX700   0.0000
    41 H14         10.4360   -27.5904    36.9947 H            1 DTX700   0.0000
    42 H15          9.5902   -26.7553    35.8748 H            1 DTX700   0.0000
    43 H16         10.4850   -25.5112    39.5733 H            1 DTX700   0.0000
    44 H17          8.3304   -25.2591    39.0698 H            1 DTX700   0.0000
    45 H18          9.0472   -27.2822    39.8348 H            1 DTX700   0.0000
    46 H19          8.6650   -28.0211    38.4296 H            1 DTX700   0.0000
    47 H20          7.2976   -26.4357    36.6529 H            1 DTX700   0.0000
    48 H21          4.7003   -24.9290    36.7030 H            1 DTX700   0.0000
    49 H22          3.8396   -26.0319    37.5454 H            1 DTX700   0.0000
    50 H23          4.6327   -25.0990    39.5895 H            1 DTX700   0.0000
    51 H24          6.2231   -24.8550    39.8686 H            1 DTX700   0.0000
    52 H25          5.4539   -23.9892    38.7173 H            1 DTX700   0.0000
    53 H26          4.9999   -27.5218    39.1417 H            1 DTX700   0.0000
    54 H27          6.8488   -27.1343    40.4754 H            1 DTX700   0.0000
    55 H28          6.9942   -28.6450    39.8725 H            1 DTX700   0.0000
    56 H29          5.8576   -29.3383    37.9301 H            1 DTX700   0.0000
    57 H30          6.8191   -28.3379    37.0690 H            1 DTX700   0.0000
    58 H31          4.9572   -28.9211    35.7565 H            1 DTX700   0.0000
    59 H32          5.7297   -26.6909    35.4667 H            1 DTX700   0.0000
    60 H33          4.1073   -26.7342    35.2859 H            1 DTX700   0.0000
    61 H34          2.8134   -28.3774    36.4956 H            1 DTX700   0.0000
@<TRIPOS>BOND
     1    1    2       1
     2    2    3       2
     3    2    4       1
     4    3    6       1
     5    4    5       1
     6    5    6       2
     7    6    7       1
     8    7    8       1
     9    7    9       1
    10    8   14       1
    11    9   10       1
    12    9   12       1
    13    9   13       1
    14   10   11       1
    15   11   18       1
    16   13   14       1
    17   13   15       1
    18   13   16       1
    19   16   17       1
    20   16   18       1
    21   17   23       1
    22   18   19       1
    23   19   20       1
    24   19   21       1
    25   19   22       1
    26   20   26       1
    27   22   23       1
    28   22   24       1
    29   24   25       1
    30   25   26       1
    31   25   27       1
    32    1   28       1
    33    3   29       1
    34    5   30       1
    35    7   31       1
    36    8   32       1
    37    8   33       1
    38   10   34       1
    39   10   35       1
    40   11   36       1
    41   11   37       1
    42   12   38       1
    43   12   39       1
    44   12   40       1
    45   14   41       1
    46   14   42       1
    47   15   43       1
    48   16   44       1
    49   17   45       1
    50   17   46       1
    51   18   47       1
    52   20   48       1
    53   20   49       1
    54   21   50       1
    55   21   51       1
    56   21   52       1
    57   22   53       1
    58   23   54       1
    59   23   55       1
    60   24   56       1
    61   24   57       1
    62   25   58       1
    63   26   59       1
    64   26   60       1
    65   27   61       1
@<TRIPOS>SUBSTRUCTURE
     1 DTX700      1 GROUP             4 A     DTX     0 **** DTX A 700
