@<TRIPOS>MOLECULE
4ask_K0I_1_ligand
   51    54     1     0     0
SMALL
NO_CHARGES


@<TRIPOS>ATOM
     1 O2          47.7830    19.3300   -21.8310 O.co2        1 K0I2639   0.0000
     2 C1          48.9660    19.6350   -21.8470 C.2          1 K0I2639   0.0000
     3 O1          49.5290    20.3580   -22.8130 O.co2        1 K0I2639  -1.0000
     4 C2          49.9300    19.2240   -20.7590 C.3          1 K0I2639   0.0000
     5 C3          49.7830    17.7690   -20.3450 C.3          1 K0I2639   0.0000
     6 N1          50.4600    17.4790   -19.0920 N.pl3        1 K0I2639   0.0000
     7 C4          50.4570    16.2390   -18.5450 C.ar         1 K0I2639   0.0000
     8 N3          51.2090    16.0710   -17.4480 N.ar         1 K0I2639   0.0000
     9 C7          51.2000    14.8370   -16.8940 C.ar         1 K0I2639   0.0000
    10 C8          52.0400    14.6320   -15.6830 C.ar         1 K0I2639   0.0000
    11 N4          52.7060    15.7050   -15.2170 N.ar         1 K0I2639   0.0000
    12 C12         53.4840    15.5340   -14.1440 C.ar         1 K0I2639   0.0000
    13 C11         53.6230    14.3250   -13.4760 C.ar         1 K0I2639   0.0000
    14 C10         52.9260    13.2320   -13.9630 C.ar         1 K0I2639   0.0000
    15 C9          52.1220    13.3710   -15.0790 C.ar         1 K0I2639   0.0000
    16 N2          50.5060    13.7770   -17.3420 N.ar         1 K0I2639   0.0000
    17 C6          49.7810    13.9730   -18.4460 C.ar         1 K0I2639   0.0000
    18 C5          49.7150    15.2090   -19.0770 C.ar         1 K0I2639   0.0000
    19 N5          49.0270    12.8880   -18.8750 N.pl3        1 K0I2639   0.0000
    20 C22         48.1710    12.9280   -20.0620 C.3          1 K0I2639   0.0000
    21 C21         46.8740    13.5550   -19.5460 C.3          1 K0I2639   0.0000
    22 C20         45.9530    12.5770   -18.8320 C.ar         1 K0I2639   0.0000
    23 C15         46.3640    11.8330   -17.7160 C.ar         1 K0I2639   0.0000
    24 C14         47.7490    11.9360   -17.1090 C.3          1 K0I2639   0.0000
    25 C13         48.9310    11.6860   -18.0540 C.3          1 K0I2639   0.0000
    26 C19         44.6450    12.4490   -19.3190 C.ar         1 K0I2639   0.0000
    27 C18         43.7460    11.5870   -18.7060 C.ar         1 K0I2639   0.0000
    28 C17         44.1420    10.8450   -17.6000 C.ar         1 K0I2639   0.0000
    29 C16         45.4410    10.9720   -17.1070 C.ar         1 K0I2639   0.0000
    30 H1          49.7688    19.8000   -19.9576 H            1 K0I2639   0.0000
    31 H2          50.8626    19.3672   -21.0903 H            1 K0I2639   0.0000
    32 H3          50.1719    17.1902   -21.0617 H            1 K0I2639   0.0000
    33 H4          48.8104    17.5615   -20.2402 H            1 K0I2639   0.0000
    34 H5          50.9424    18.2165   -18.6194 H            1 K0I2639   0.0000
    35 H6          53.9956    16.3225   -13.8025 H            1 K0I2639   0.0000
    36 H7          54.2079    14.2459   -12.6688 H            1 K0I2639   0.0000
    37 H8          53.0040    12.3446   -13.5087 H            1 K0I2639   0.0000
    38 H9          51.6127    12.5922   -15.4451 H            1 K0I2639   0.0000
    39 H10         49.1481    15.3456   -19.8894 H            1 K0I2639   0.0000
    40 H11         48.0069    12.0071   -20.4155 H            1 K0I2639   0.0000
    41 H12         48.5803    13.4923   -20.7790 H            1 K0I2639   0.0000
    42 H13         46.3797    13.9403   -20.3252 H            1 K0I2639   0.0000
    43 H14         47.1113    14.2867   -18.9070 H            1 K0I2639   0.0000
    44 H15         47.8062    11.2674   -16.3676 H            1 K0I2639   0.0000
    45 H16         47.8489    12.8580   -16.7349 H            1 K0I2639   0.0000
    46 H17         49.7735    11.5493   -17.5329 H            1 K0I2639   0.0000
    47 H18         48.7589    10.8839   -18.6258 H            1 K0I2639   0.0000
    48 H19         44.3572    12.9827   -20.1142 H            1 K0I2639   0.0000
    49 H20         42.8147    11.5002   -19.0599 H            1 K0I2639   0.0000
    50 H21         43.4972    10.2212   -17.1582 H            1 K0I2639   0.0000
    51 H22         45.7178    10.4403   -16.3066 H            1 K0I2639   0.0000
@<TRIPOS>BOND
     1    1    2      ar
     2    2    3      ar
     3    2    4       1
     4    4    5       1
     5    5    6       1
     6    6    7       1
     7    7    8      ar
     8    7   18      ar
     9    8    9      ar
    10    9   10       1
    11    9   16      ar
    12   10   11      ar
    13   10   15      ar
    14   11   12      ar
    15   12   13      ar
    16   13   14      ar
    17   14   15      ar
    18   16   17      ar
    19   17   18      ar
    20   17   19       1
    21   19   20       1
    22   19   25       1
    23   20   21       1
    24   21   22       1
    25   22   23      ar
    26   22   26      ar
    27   23   24       1
    28   23   29      ar
    29   24   25       1
    30   26   27      ar
    31   27   28      ar
    32   28   29      ar
    33   29   51       1
    34    4   30       1
    35    4   31       1
    36    5   32       1
    37    5   33       1
    38    6   34       1
    39   12   35       1
    40   13   36       1
    41   14   37       1
    42   15   38       1
    43   18   39       1
    44   20   40       1
    45   20   41       1
    46   21   42       1
    47   21   43       1
    48   24   44       1
    49   24   45       1
    50   25   46       1
    51   25   47       1
    52   26   48       1
    53   27   49       1
    54   28   50       1
@<TRIPOS>SUBSTRUCTURE
     1 K0I2639     1 GROUP             4 A     K0I     0 **** K0I A2639
