@<TRIPOS>MOLECULE
2o4p_TPV_1_ligand
   75    78     1     0     0
SMALL
NO_CHARGES


@<TRIPOS>ATOM
     1 O1          13.6940    22.0290    16.5860 O.3          1 TPV300   0.0000
     2 C2          12.4450    21.3450    16.8100 C.2          1 TPV300   0.0000
     3 C3          12.4600    20.0390    17.4770 C.2          1 TPV300   0.0000
     4 C4          13.6860    19.5000    17.7840 C.2          1 TPV300   0.0000
     5 C5          15.0150    20.1740    17.4840 C.3          1 TPV300   0.0000
     6 C6          14.9040    21.6890    17.2540 C.3          1 TPV300   0.0000
     7 O7          11.4360    21.8930    16.4140 O.2          1 TPV300   0.0000
     8 O8          13.8160    18.3200    18.3550 O.3          1 TPV300   0.0000
     9 C9          14.8370    22.2820    18.6830 C.3          1 TPV300   0.0000
    10 C10         15.2090    23.7360    18.8770 C.3          1 TPV300   0.0000
    11 C11         15.1790    24.0350    20.3650 C.3          1 TPV300   0.0000
    12 C12         16.0530    22.2100    16.3850 C.3          1 TPV300   0.0000
    13 C13         16.0850    21.7480    14.9010 C.3          1 TPV300   0.0000
    14 C14         17.2110    22.5020    14.1730 C.ar         1 TPV300   0.0000
    15 C15         16.9200    23.6110    13.3770 C.ar         1 TPV300   0.0000
    16 C16         17.9730    24.2740    12.7280 C.ar         1 TPV300   0.0000
    17 C17         19.3070    23.8590    12.8950 C.ar         1 TPV300   0.0000
    18 C18         19.6000    22.7600    13.6920 C.ar         1 TPV300   0.0000
    19 C19         18.5490    22.0790    14.2970 C.ar         1 TPV300   0.0000
    20 C20         11.0990    19.3940    17.7140 C.3          1 TPV300   0.0000
    21 C21         10.8720    18.7230    19.0910 C.3          1 TPV300   0.0000
    22 C22         11.0610    19.6620    20.2900 C.3          1 TPV300   0.0000
    23 C23         10.7490    18.4410    16.6240 C.ar         1 TPV300   0.0000
    24 C24         11.6810    17.8550    15.7750 C.ar         1 TPV300   0.0000
    25 C25         11.2710    16.9740    14.7660 C.ar         1 TPV300   0.0000
    26 C26          9.9140    16.6820    14.6130 C.ar         1 TPV300   0.0000
    27 C27          8.9630    17.2540    15.4560 C.ar         1 TPV300   0.0000
    28 N28          7.6170    16.9830    15.3240 N.pl3        1 TPV300   0.0000
    29 C29          9.3950    18.1330    16.4430 C.ar         1 TPV300   0.0000
    30 S30          7.0060    15.6130    15.8950 S.o2         1 TPV300   0.0000
    31 O31          7.8350    14.5030    15.4400 O.2          1 TPV300   0.0000
    32 O32          5.6300    15.4630    15.4740 O.2          1 TPV300   0.0000
    33 C33          7.1150    15.8600    17.4940 C.ar         1 TPV300   0.0000
    34 N34          8.1990    15.4390    18.2020 N.ar         1 TPV300   0.0000
    35 C35          8.3130    15.7160    19.5290 C.ar         1 TPV300   0.0000
    36 C36          7.3350    16.4380    20.2360 C.ar         1 TPV300   0.0000
    37 C37          6.2270    16.9090    19.5160 C.ar         1 TPV300   0.0000
    38 C38          6.1380    16.6190    18.1520 C.ar         1 TPV300   0.0000
    39 C39          7.4870    16.7890    21.7000 C.3          1 TPV300   0.0000
    40 F40          7.9660    15.8230    22.4870 F            1 TPV300   0.0000
    41 F41          6.3480    17.2330    22.1870 F            1 TPV300   0.0000
    42 F42          8.3380    17.8100    21.7340 F            1 TPV300   0.0000
    43 H1          15.4010    19.7576    16.6608 H            1 TPV300   0.0000
    44 H2          15.6298    20.0166    18.2568 H            1 TPV300   0.0000
    45 H3          14.7266    17.9625    18.5625 H            1 TPV300   0.0000
    46 H4          15.4514    21.7405    19.2569 H            1 TPV300   0.0000
    47 H5          13.8967    22.1719    19.0050 H            1 TPV300   0.0000
    48 H6          14.5524    24.3205    18.4004 H            1 TPV300   0.0000
    49 H7          16.1267    23.9023    18.5161 H            1 TPV300   0.0000
    50 H8          15.4223    24.9929    20.5175 H            1 TPV300   0.0000
    51 H9          14.2603    23.8636    20.7210 H            1 TPV300   0.0000
    52 H10         15.8346    23.4454    20.8368 H            1 TPV300   0.0000
    53 H11         16.9092    21.9166    16.8103 H            1 TPV300   0.0000
    54 H12         16.0042    23.2088    16.3885 H            1 TPV300   0.0000
    55 H13         15.2078    21.9519    14.4662 H            1 TPV300   0.0000
    56 H14         16.2572    20.7638    14.8587 H            1 TPV300   0.0000
    57 H15         15.9774    23.9277    13.2710 H            1 TPV300   0.0000
    58 H16         17.7717    25.0549    12.1366 H            1 TPV300   0.0000
    59 H17         20.0453    24.3561    12.4391 H            1 TPV300   0.0000
    60 H18         20.5457    22.4648    13.8279 H            1 TPV300   0.0000
    61 H19         18.7497    21.2622    14.8378 H            1 TPV300   0.0000
    62 H20         10.4301    20.1351    17.6561 H            1 TPV300   0.0000
    63 H21         11.5192    17.9660    19.1810 H            1 TPV300   0.0000
    64 H22          9.9377    18.3675    19.1159 H            1 TPV300   0.0000
    65 H23         10.8980    19.1572    21.1377 H            1 TPV300   0.0000
    66 H24         11.9949    20.0196    20.2894 H            1 TPV300   0.0000
    67 H25         10.4133    20.4211    20.2243 H            1 TPV300   0.0000
    68 H26         12.6526    18.0642    15.8856 H            1 TPV300   0.0000
    69 H27         11.9466    16.5563    14.1584 H            1 TPV300   0.0000
    70 H28          9.6214    16.0555    13.8906 H            1 TPV300   0.0000
    71 H29          7.0188    17.6435    14.8702 H            1 TPV300   0.0000
    72 H30          8.7173    18.5587    17.0426 H            1 TPV300   0.0000
    73 H31          9.1225    15.3942    20.0201 H            1 TPV300   0.0000
    74 H32          5.5138    17.4426    19.9706 H            1 TPV300   0.0000
    75 H33          5.3562    16.9623    17.6315 H            1 TPV300   0.0000
@<TRIPOS>BOND
     1    1    2       1
     2    1    6       1
     3    2    3       1
     4    2    7       2
     5    3    4       2
     6    3   20       1
     7    4    5       1
     8    4    8       1
     9    5    6       1
    10    6    9       1
    11    6   12       1
    12    9   10       1
    13   10   11       1
    14   12   13       1
    15   13   14       1
    16   14   15      ar
    17   14   19      ar
    18   15   16      ar
    19   16   17      ar
    20   17   18      ar
    21   18   19      ar
    22   20   21       1
    23   20   23       1
    24   21   22       1
    25   23   24      ar
    26   23   29      ar
    27   24   25      ar
    28   25   26      ar
    29   26   27      ar
    30   27   28       1
    31   27   29      ar
    32   28   30       1
    33   30   31       2
    34   30   32       2
    35   30   33       1
    36   33   34      ar
    37   33   38      ar
    38   34   35      ar
    39   35   36      ar
    40   36   37      ar
    41   36   39       1
    42   37   38      ar
    43   39   40       1
    44   39   41       1
    45   39   42       1
    46    5   43       1
    47    5   44       1
    48    8   45       1
    49    9   46       1
    50    9   47       1
    51   10   48       1
    52   10   49       1
    53   11   50       1
    54   11   51       1
    55   11   52       1
    56   12   53       1
    57   12   54       1
    58   13   55       1
    59   13   56       1
    60   15   57       1
    61   16   58       1
    62   17   59       1
    63   18   60       1
    64   19   61       1
    65   20   62       1
    66   21   63       1
    67   21   64       1
    68   22   65       1
    69   22   66       1
    70   22   67       1
    71   24   68       1
    72   25   69       1
    73   26   70       1
    74   28   71       1
    75   29   72       1
    76   35   73       1
    77   37   74       1
    78   38   75       1
@<TRIPOS>SUBSTRUCTURE
     1 TPV300      1 GROUP             4 A     TPV     0 **** TPV A 300
