@<TRIPOS>MOLECULE
3t3r_9PL_2_ligand
   31    32     1     0     0
SMALL
NO_CHARGES


@<TRIPOS>ATOM
     1 N1         -20.6890    32.0120    -5.7180 N.pl3        1 9PL501   0.0000
     2 C2         -20.2510    33.0710    -5.0370 C.2          1 9PL501   0.0000
     3 N3         -20.0230    34.0780    -5.8940 N.2          1 9PL501   0.0000
     4 C4         -20.3050    33.6530    -7.1320 C.2          1 9PL501   0.0000
     5 C5         -20.7280    32.3390    -7.0190 C.2          1 9PL501   0.0000
     6 C6         -21.0690    30.7140    -5.1020 C.3          1 9PL501   0.0000
     7 C7         -21.1900    31.4800    -8.1720 C.3          1 9PL501   0.0000
     8 C8         -22.7150    31.5810    -8.2110 C.3          1 9PL501   0.0000
     9 C9         -23.2740    33.0020    -8.1340 C.3          1 9PL501   0.0000
    10 O10        -24.5620    32.8990    -8.7200 O.3          1 9PL501   0.0000
    11 C11        -24.7960    31.5520    -9.1700 C.2          1 9PL501   0.0000
    12 C12        -23.5540    30.7210    -9.1610 C.3          1 9PL501   0.0000
    13 C13        -23.0790    30.6320   -10.6030 C.3          1 9PL501   0.0000
    14 C14        -21.9200    29.6860   -10.7950 C.3          1 9PL501   0.0000
    15 O15        -25.9060    31.1710    -9.4970 O.2          1 9PL501   0.0000
    16 H1         -20.1144    33.1088    -4.0471 H            1 9PL501   0.0000
    17 H2         -20.2254    34.1828    -7.9764 H            1 9PL501   0.0000
    18 H3         -21.3645    30.0798    -5.8165 H            1 9PL501   0.0000
    19 H4         -20.2810    30.3301    -4.6206 H            1 9PL501   0.0000
    20 H5         -21.8172    30.8587    -4.4545 H            1 9PL501   0.0000
    21 H6         -20.9110    30.5306    -8.0280 H            1 9PL501   0.0000
    22 H7         -20.8003    31.8155    -9.0296 H            1 9PL501   0.0000
    23 H8         -22.9694    31.2103    -7.3178 H            1 9PL501   0.0000
    24 H9         -22.6994    33.6380    -8.6491 H            1 9PL501   0.0000
    25 H10        -23.3396    33.3067    -7.1838 H            1 9PL501   0.0000
    26 H11        -23.7250    29.8138    -8.7767 H            1 9PL501   0.0000
    27 H12        -22.7964    31.5439   -10.9004 H            1 9PL501   0.0000
    28 H13        -23.8413    30.3182   -11.1690 H            1 9PL501   0.0000
    29 H14        -21.6567    29.6729   -11.7596 H            1 9PL501   0.0000
    30 H15        -21.1450    29.9919   -10.2420 H            1 9PL501   0.0000
    31 H16        -22.1899    28.7661   -10.5106 H            1 9PL501   0.0000
@<TRIPOS>BOND
     1    1    2       1
     2    1    5       1
     3    1    6       1
     4    2    3       2
     5    3    4       1
     6    4    5       2
     7    5    7       1
     8    7    8       1
     9    8    9       1
    10    8   12       1
    11    9   10       1
    12   10   11       1
    13   11   12       1
    14   11   15       2
    15   12   13       1
    16   13   14       1
    17    2   16       1
    18    4   17       1
    19    6   18       1
    20    6   19       1
    21    6   20       1
    22    7   21       1
    23    7   22       1
    24    8   23       1
    25    9   24       1
    26    9   25       1
    27   12   26       1
    28   13   27       1
    29   13   28       1
    30   14   29       1
    31   14   30       1
    32   14   31       1
@<TRIPOS>SUBSTRUCTURE
     1 9PL501      1 GROUP             4 B     9PL     0 **** 9PL B 501
