@<TRIPOS>MOLECULE
2wgh_DTP_1_ligand
   42    44     1     0     0
SMALL
NO_CHARGES


@<TRIPOS>ATOM
     1 PG          48.8490    -3.9240     3.6760 P.3          1 DTP1745   0.0000
     2 O1G         49.8080    -5.0300     4.2260 O.co2        1 DTP1745   0.0000
     3 O2G         47.8640    -3.5600     4.8940 O.co2        1 DTP1745  -1.0000
     4 O3G         48.0830    -4.2710     2.4430 O.co2        1 DTP1745  -1.0000
     5 PB          49.1670    -1.1840     3.6700 P.3          1 DTP1745   0.0000
     6 O1B         49.9280    -0.2420     2.7030 O.co2        1 DTP1745   0.0000
     7 O2B         47.7320    -1.2470     3.3420 O.co2        1 DTP1745  -1.0000
     8 O3B         49.8310    -2.6300     3.5020 O.3          1 DTP1745   0.0000
     9 PA          48.2620    -0.2720     6.1430 P.3          1 DTP1745   0.0000
    10 O1A         46.9910    -1.1560     5.7790 O.co2        1 DTP1745   0.0000
    11 O2A         47.9770     1.1810     6.1580 O.co2        1 DTP1745  -1.0000
    12 O3A         49.4540    -0.6740     5.0770 O.3          1 DTP1745   0.0000
    13 O5'         48.8060    -0.7210     7.6010 O.3          1 DTP1745   0.0000
    14 C5'         48.9550    -2.0850     7.8030 C.3          1 DTP1745   0.0000
    15 C4'         49.5540    -2.3200     9.2300 C.3          1 DTP1745   0.0000
    16 O4'         50.8720    -1.7750     9.2190 O.3          1 DTP1745   0.0000
    17 C3'         48.7430    -1.5080    10.2840 C.3          1 DTP1745   0.0000
    18 O3'         48.7780    -2.0750    11.5930 O.3          1 DTP1745   0.0000
    19 C2'         49.4590    -0.1740    10.3360 C.3          1 DTP1745   0.0000
    20 C1'         50.8890    -0.5720    10.0380 C.3          1 DTP1745   0.0000
    21 N9          51.6550     0.4610     9.3200 N.pl3        1 DTP1745   0.0000
    22 C8          51.4320     0.8070     8.0630 C.2          1 DTP1745   0.0000
    23 N7          52.3280     1.7440     7.7290 N.2          1 DTP1745   0.0000
    24 C5          53.1220     1.9930     8.7760 C.ar         1 DTP1745   0.0000
    25 C6          54.2000     2.8550     8.9780 C.ar         1 DTP1745   0.0000
    26 N6          54.6440     3.6830     7.9860 N.pl3        1 DTP1745   0.0000
    27 N1          54.7840     2.8680    10.1960 N.ar         1 DTP1745   0.0000
    28 C2          54.3570     2.0450    11.1420 C.ar         1 DTP1745   0.0000
    29 N3          53.3470     1.2160    10.9320 N.ar         1 DTP1745   0.0000
    30 C4          52.7040     1.1680     9.7740 C.ar         1 DTP1745   0.0000
    31 H5'1        49.5728    -2.4616     7.1128 H            1 DTP1745   0.0000
    32 H5'2        48.0644    -2.5344     7.7340 H            1 DTP1745   0.0000
    33 H4'         49.5686    -3.2934     9.4587 H            1 DTP1745   0.0000
    34 H3'         47.7980    -1.3863     9.9805 H            1 DTP1745   0.0000
    35 H5          48.0177    -2.7158    11.6991 H            1 DTP1745   0.0000
    36 H2'1        49.3797     0.2459    11.2401 H            1 DTP1745   0.0000
    37 H2'2        49.1053     0.4553     9.6440 H            1 DTP1745   0.0000
    38 H1'         51.3529    -0.7759    10.9001 H            1 DTP1745   0.0000
    39 H9          50.7201     0.4346     7.4675 H            1 DTP1745   0.0000
    40 H10         55.4187     4.2928     8.1531 H            1 DTP1745   0.0000
    41 H11         54.1943     3.6792     7.0929 H            1 DTP1745   0.0000
    42 H12         54.8078     2.0502    12.0346 H            1 DTP1745   0.0000
@<TRIPOS>BOND
     1    1    2      ar
     2    1    3      ar
     3    1    4      ar
     4    1    8       1
     5    5    6      ar
     6    5    7      ar
     7    5    8       1
     8    5   12       1
     9    9   10      ar
    10    9   11      ar
    11    9   12       1
    12    9   13       1
    13   13   14       1
    14   14   15       1
    15   15   16       1
    16   15   17       1
    17   16   20       1
    18   17   18       1
    19   17   19       1
    20   19   20       1
    21   20   21       1
    22   21   22       1
    23   21   30       1
    24   22   23       2
    25   23   24       1
    26   24   25      ar
    27   24   30      ar
    28   25   26       1
    29   25   27      ar
    30   27   28      ar
    31   28   29      ar
    32   29   30      ar
    33   28   42       1
    34   26   41       1
    35   26   40       1
    36   22   39       1
    37   14   31       1
    38   14   32       1
    39   15   33       1
    40   17   34       1
    41   18   35       1
    42   19   36       1
    43   19   37       1
    44   20   38       1
@<TRIPOS>SUBSTRUCTURE
     1 DTP1745     1 GROUP             4 A     DTP     0 **** DTP A1745
