@<TRIPOS>MOLECULE
1wc3_APC_1_ligand
   45    47     1     0     0
SMALL
NO_CHARGES


@<TRIPOS>ATOM
     1 PG          15.2610     4.9200    55.7020 P.3          1 APC1500   0.0000
     2 O1G         15.0450     4.7390    57.1790 O.co2        1 APC1500   0.0000
     3 O2G         13.9390     4.7140    54.9840 O.co2        1 APC1500  -1.0000
     4 O3G         16.2830     3.9060    55.2120 O.co2        1 APC1500  -1.0000
     5 PB          17.3170     6.8610    55.6730 P.3          1 APC1500   0.0000
     6 O1B         18.2570     6.2630    54.6210 O.co2        1 APC1500   0.0000
     7 O2B         17.4290     8.3950    55.6250 O.co2        1 APC1500  -1.0000
     8 O3B         15.7920     6.4210    55.3790 O.3          1 APC1500   0.0000
     9 PA          19.3880     6.8560    57.8690 P.3          1 APC1500   0.0000
    10 O1A         20.4990     6.1090    57.1080 O.co2        1 APC1500   0.0000
    11 O2A         19.5530     8.3730    57.6550 O.co2        1 APC1500  -1.0000
    12 C3A         17.7710     6.2890    57.3190 C.3          1 APC1500   0.0000
    13 O5'         19.5080     6.5600    59.4430 O.3          1 APC1500   0.0000
    14 C5'         19.3900     5.2260    59.9420 C.3          1 APC1500   0.0000
    15 C4'         20.6400     4.8320    60.7330 C.3          1 APC1500   0.0000
    16 O4'         20.3860     3.6120    61.4680 O.3          1 APC1500   0.0000
    17 C3'         21.8250     4.5460    59.8180 C.3          1 APC1500   0.0000
    18 O3'         23.0230     4.9840    60.4830 O.3          1 APC1500   0.0000
    19 C2'         21.7690     3.0460    59.6510 C.3          1 APC1500   0.0000
    20 O2'         23.0390     2.5260    59.2550 O.3          1 APC1500   0.0000
    21 C1'         21.3480     2.6030    61.0340 C.3          1 APC1500   0.0000
    22 N9          20.6830     1.2960    61.0250 N.pl3        1 APC1500   0.0000
    23 C8          19.3400     0.9930    61.0210 C.2          1 APC1500   0.0000
    24 N7          19.0760    -0.2850    61.0340 N.2          1 APC1500   0.0000
    25 C5          20.3250    -0.8770    61.0610 C.ar         1 APC1500   0.0000
    26 C6          20.7510    -2.2450    61.0860 C.ar         1 APC1500   0.0000
    27 N6          19.8930    -3.2710    61.1070 N.pl3        1 APC1500   0.0000
    28 N1          22.0870    -2.5090    61.1030 N.ar         1 APC1500   0.0000
    29 C2          22.9720    -1.4490    61.0870 C.ar         1 APC1500   0.0000
    30 N3          22.6830    -0.1350    61.0620 N.ar         1 APC1500   0.0000
    31 C4          21.3450     0.0700    61.0500 C.ar         1 APC1500   0.0000
    32 H3A1        17.7727     5.2890    57.3153 H            1 APC1500   0.0000
    33 H3A2        17.0846     6.6188    57.9672 H            1 APC1500   0.0000
    34 H5'1        19.2761     4.5968    59.1732 H            1 APC1500   0.0000
    35 H5'2        18.5911     5.1689    60.5407 H            1 APC1500   0.0000
    36 H4'         20.8779     5.5645    61.3709 H            1 APC1500   0.0000
    37 H3'         21.7160     5.0077    58.9377 H            1 APC1500   0.0000
    38 H7          22.9039     4.9022    61.4725 H            1 APC1500   0.0000
    39 H2'         21.0695     2.7984    58.9806 H            1 APC1500   0.0000
    40 H9          22.9496     2.0640    58.3726 H            1 APC1500   0.0000
    41 H1'         22.1365     2.5875    61.6489 H            1 APC1500   0.0000
    42 H11         18.6265     1.6936    61.0091 H            1 APC1500   0.0000
    43 H12         20.2367    -4.2099    61.1241 H            1 APC1500   0.0000
    44 H13         18.9079    -3.0991    61.1056 H            1 APC1500   0.0000
    45 H14         23.9434    -1.6862    61.0949 H            1 APC1500   0.0000
@<TRIPOS>BOND
     1    1    2      ar
     2    1    3      ar
     3    1    4      ar
     4    1    8       1
     5    5    6      ar
     6    5    7      ar
     7    5    8       1
     8    5   12       1
     9    9   10      ar
    10    9   11      ar
    11    9   12       1
    12    9   13       1
    13   13   14       1
    14   14   15       1
    15   15   16       1
    16   15   17       1
    17   16   21       1
    18   17   18       1
    19   17   19       1
    20   19   20       1
    21   19   21       1
    22   21   22       1
    23   22   23       1
    24   22   31       1
    25   23   24       2
    26   24   25       1
    27   25   26      ar
    28   25   31      ar
    29   26   27       1
    30   26   28      ar
    31   28   29      ar
    32   29   30      ar
    33   30   31      ar
    34   29   45       1
    35   27   44       1
    36   27   43       1
    37   23   42       1
    38   12   32       1
    39   12   33       1
    40   14   34       1
    41   14   35       1
    42   15   36       1
    43   17   37       1
    44   18   38       1
    45   19   39       1
    46   20   40       1
    47   21   41       1
@<TRIPOS>SUBSTRUCTURE
     1 APC1500     1 GROUP             4 A     APC     0 **** APC A1500
