@<TRIPOS>MOLECULE
1av5_AP2_1_ligand
   41    43     1     0     0
SMALL
NO_CHARGES


@<TRIPOS>ATOM
     1 PB          43.1740    31.4630    48.4440 P.3          1 AP2200   0.0000
     2 O1B         43.2690    30.2570    47.5500 O.co2        1 AP2200   0.0000
     3 O2B         43.6890    32.6540    47.7740 O.co2        1 AP2200  -1.0000
     4 O3B         43.7450    31.3520    49.8350 O.co2        1 AP2200  -1.0000
     5 C3A         41.4430    31.6520    48.6240 C.3          1 AP2200   0.0000
     6 PA          40.5450    32.7470    49.4260 P.3          1 AP2200   0.0000
     7 O1A         40.9980    34.1470    49.3360 O.co2        1 AP2200   0.0000
     8 O2A         39.1330    32.8300    48.9870 O.co2        1 AP2200  -1.0000
     9 O5'         40.5960    32.3500    50.9780 O.3          1 AP2200   0.0000
    10 C5'         41.9190    32.2050    51.5710 C.3          1 AP2200   0.0000
    11 C4'         41.9770    32.4500    53.1140 C.3          1 AP2200   0.0000
    12 O4'         41.3110    31.4420    53.9400 O.3          1 AP2200   0.0000
    13 C3'         43.4730    32.2490    53.3890 C.3          1 AP2200   0.0000
    14 O3'         44.0750    33.4740    53.8140 O.3          1 AP2200   0.0000
    15 C2'         43.5500    31.1130    54.5380 C.3          1 AP2200   0.0000
    16 O2'         44.5590    31.0820    55.5820 O.3          1 AP2200   0.0000
    17 C1'         42.1850    31.3460    55.1400 C.3          1 AP2200   0.0000
    18 N9          41.6060    30.3000    56.0530 N.pl3        1 AP2200   0.0000
    19 C8          41.4880    28.9480    55.7870 C.2          1 AP2200   0.0000
    20 N7          41.2910    28.1750    56.8400 N.2          1 AP2200   0.0000
    21 C5          41.2800    29.1130    57.9010 C.ar         1 AP2200   0.0000
    22 C6          41.1010    28.9550    59.3660 C.ar         1 AP2200   0.0000
    23 N6          40.9090    27.7330    59.9170 N.pl3        1 AP2200   0.0000
    24 N1          41.1520    30.1130    60.0730 N.ar         1 AP2200   0.0000
    25 C2          41.3440    31.3390    59.5320 C.ar         1 AP2200   0.0000
    26 N3          41.5140    31.5680    58.2110 N.ar         1 AP2200   0.0000
    27 C4          41.4700    30.4040    57.4470 C.ar         1 AP2200   0.0000
    28 H3A1        41.1505    30.7783    49.0127 H            1 AP2200   0.0000
    29 H3A2        41.1154    31.7241    47.6820 H            1 AP2200   0.0000
    30 H5'1        42.5315    32.8603    51.1288 H            1 AP2200   0.0000
    31 H5'2        42.2400    31.2751    51.3915 H            1 AP2200   0.0000
    32 H4'         41.6802    33.3750    53.3512 H            1 AP2200   0.0000
    33 H3'         43.9264    31.9209    52.5603 H            1 AP2200   0.0000
    34 H7          44.0215    33.5437    54.8101 H            1 AP2200   0.0000
    35 H2'         43.5416    30.2191    54.0898 H            1 AP2200   0.0000
    36 H9          44.8476    32.0156    55.7945 H            1 AP2200   0.0000
    37 H1'         42.1847    32.2268    55.6135 H            1 AP2200   0.0000
    38 H11         41.5478    28.5800    54.8591 H            1 AP2200   0.0000
    39 H12         40.7900    27.6435    60.9059 H            1 AP2200   0.0000
    40 H13         40.8862    26.9201    59.3350 H            1 AP2200   0.0000
    41 H14         41.3611    32.1255    60.1493 H            1 AP2200   0.0000
@<TRIPOS>BOND
     1    1    2      ar
     2    1    3      ar
     3    1    4      ar
     4    1    5       1
     5    5    6       1
     6    6    7      ar
     7    6    8      ar
     8    6    9       1
     9    9   10       1
    10   10   11       1
    11   11   12       1
    12   11   13       1
    13   12   17       1
    14   13   14       1
    15   13   15       1
    16   15   16       1
    17   15   17       1
    18   17   18       1
    19   18   19       1
    20   18   27       1
    21   19   20       2
    22   20   21       1
    23   21   22      ar
    24   21   27      ar
    25   22   23       1
    26   22   24      ar
    27   24   25      ar
    28   25   26      ar
    29   26   27      ar
    30   25   41       1
    31   23   40       1
    32    5   28       1
    33    5   29       1
    34   23   39       1
    35   10   30       1
    36   10   31       1
    37   11   32       1
    38   13   33       1
    39   14   34       1
    40   15   35       1
    41   16   36       1
    42   17   37       1
    43   19   38       1
@<TRIPOS>SUBSTRUCTURE
     1 AP2200      1 GROUP             4 B     AP2     0 **** AP2 B 200
