@<TRIPOS>MOLECULE
1rg9_SAM_4_ligand
   50    52     1     0     0
SMALL
NO_CHARGES


@<TRIPOS>ATOM
     1 N          -36.2700    26.2380    -0.0860 N.4          1 SAM685   1.0000
     2 CA         -36.9680    27.5340    -0.3410 C.3          1 SAM685   0.0000
     3 C          -36.7110    28.5050     0.8000 C.2          1 SAM685   0.0000
     4 O          -37.6610    29.1970     1.2110 O.co2        1 SAM685   0.0000
     5 OXT        -35.5030    28.5180     1.2560 O.co2        1 SAM685  -1.0000
     6 CB         -38.4750    27.2900    -0.5030 C.3          1 SAM685   0.0000
     7 CG         -38.7630    26.2960    -1.5840 C.3          1 SAM685   0.0000
     8 SD         -39.0530    26.9440    -3.2480 S.3          1 SAM685   1.0000
     9 CE         -40.3340    28.1960    -3.0490 C.3          1 SAM685   0.0000
    10 C5'        -39.8370    25.6560    -4.1160 C.3          1 SAM685   0.0000
    11 C4'        -39.9070    25.7950    -5.6170 C.3          1 SAM685   0.0000
    12 O4'        -40.3050    27.1500    -5.9860 O.3          1 SAM685   0.0000
    13 C3'        -38.5830    25.6030    -6.3400 C.3          1 SAM685   0.0000
    14 O3'        -38.3960    24.1810    -6.5050 O.3          1 SAM685   0.0000
    15 C2'        -38.8330    26.2870    -7.6550 C.3          1 SAM685   0.0000
    16 O2'        -39.3400    25.5450    -8.7590 O.3          1 SAM685   0.0000
    17 C1'        -39.6980    27.5030    -7.2130 C.3          1 SAM685   0.0000
    18 N9         -38.9380    28.7420    -7.0380 N.pl3        1 SAM685   0.0000
    19 C8         -37.6230    28.9570    -6.6700 C.2          1 SAM685   0.0000
    20 N7         -37.2810    30.2140    -6.6120 N.2          1 SAM685   0.0000
    21 C5         -38.4370    30.8930    -6.9630 C.ar         1 SAM685   0.0000
    22 C6         -38.7520    32.2900    -7.0970 C.ar         1 SAM685   0.0000
    23 N6         -37.8410    33.2620    -6.8660 N.pl3        1 SAM685   0.0000
    24 N1         -40.0340    32.6610    -7.4770 N.ar         1 SAM685   0.0000
    25 C2         -40.9430    31.6740    -7.7080 C.ar         1 SAM685   0.0000
    26 N3         -40.7600    30.3260    -7.6110 N.ar         1 SAM685   0.0000
    27 C4         -39.4740    29.9970    -7.2310 C.ar         1 SAM685   0.0000
    28 H1         -36.8785    25.6253     0.4184 H            1 SAM685   0.0000
    29 H2         -36.0205    25.8166    -0.9579 H            1 SAM685   0.0000
    30 HA         -36.6128    27.9303    -1.1876 H            1 SAM685   0.0000
    31 HB1        -38.9205    28.1556    -0.7319 H            1 SAM685   0.0000
    32 HB2        -38.8418    26.9445     0.3608 H            1 SAM685   0.0000
    33 HG1        -39.5793    25.7856    -1.3135 H            1 SAM685   0.0000
    34 HG2        -37.9823    25.6732    -1.6356 H            1 SAM685   0.0000
    35 HE1        -40.5462    28.6002    -3.9387 H            1 SAM685   0.0000
    36 HE2        -41.1572    27.7733    -2.6701 H            1 SAM685   0.0000
    37 HE3        -40.0094    28.9092    -2.4278 H            1 SAM685   0.0000
    38 H5'1       -40.7742    25.5866    -3.7740 H            1 SAM685   0.0000
    39 H5'2       -39.3445    24.8098    -3.9127 H            1 SAM685   0.0000
    40 H4'        -40.5764    25.1453    -5.9772 H            1 SAM685   0.0000
    41 H3'        -37.8238    26.0220    -5.8420 H            1 SAM685   0.0000
    42 H15        -38.3759    23.7411    -5.6072 H            1 SAM685   0.0000
    43 H2'        -37.9531    26.6606    -7.9486 H            1 SAM685   0.0000
    44 H17        -38.5778    25.1724    -9.2884 H            1 SAM685   0.0000
    45 H1'        -40.4130    27.6560    -7.8951 H            1 SAM685   0.0000
    46 H19        -36.9880    28.2120    -6.4657 H            1 SAM685   0.0000
    47 H20        -38.0978    34.2229    -6.9697 H            1 SAM685   0.0000
    48 H21        -36.9104    33.0200    -6.5915 H            1 SAM685   0.0000
    49 H22        -41.8566    31.9742    -7.9823 H            1 SAM685   0.0000
    50 H23        -35.4438    26.4046     0.4522 H            1 SAM685   0.0000
@<TRIPOS>BOND
     1    1    2       1
     2    2    3       1
     3    2    6       1
     4    3    4      ar
     5    3    5      ar
     6    6    7       1
     7    7    8       1
     8    8    9       1
     9    8   10       1
    10   10   11       1
    11   11   12       1
    12   11   13       1
    13   12   17       1
    14   13   14       1
    15   13   15       1
    16   15   16       1
    17   15   17       1
    18   17   18       1
    19   18   19       1
    20   18   27       1
    21   19   20       2
    22   20   21       1
    23   21   22      ar
    24   21   27      ar
    25   22   23       1
    26   22   24      ar
    27   24   25      ar
    28   25   26      ar
    29   26   27      ar
    30    1   28       1
    31    1   29       1
    32    2   30       1
    33    1   50       1
    34    6   31       1
    35    6   32       1
    36    7   33       1
    37    7   34       1
    38    9   35       1
    39    9   36       1
    40    9   37       1
    41   10   38       1
    42   10   39       1
    43   11   40       1
    44   13   41       1
    45   14   42       1
    46   15   43       1
    47   16   44       1
    48   17   45       1
    49   19   46       1
    50   23   47       1
    51   23   48       1
    52   25   49       1
@<TRIPOS>SUBSTRUCTURE
     1 SAM685      1 GROUP             4 C     SAM     0 **** SAM C 685
