@<TRIPOS>MOLECULE
3rf7_NAD_1_ligand
   70    74     1     0     0
SMALL
NO_CHARGES


@<TRIPOS>ATOM
     1 PA          69.4860    21.6380    42.1630 P.3          1 NAD358   0.0000
     2 O1A         68.7210    21.0340    43.2750 O.co2        1 NAD358   0.0000
     3 O2A         70.8900    22.0370    42.3910 O.co2        1 NAD358  -1.0000
     4 O5B         68.5950    22.8940    41.6700 O.3          1 NAD358   0.0000
     5 C5B         68.9360    23.5690    40.4460 C.3          1 NAD358   0.0000
     6 C4B         68.3120    24.9650    40.3630 C.3          1 NAD358   0.0000
     7 O4B         66.9200    24.8300    40.1170 O.3          1 NAD358   0.0000
     8 C3B         68.4510    25.7600    41.6520 C.3          1 NAD358   0.0000
     9 O3B         68.8000    27.0980    41.4080 O.3          1 NAD358   0.0000
    10 C2B         67.0680    25.6630    42.2510 C.3          1 NAD358   0.0000
    11 O2B         66.7570    26.7370    43.1170 O.3          1 NAD358   0.0000
    12 C1B         66.1930    25.6160    41.0140 C.3          1 NAD358   0.0000
    13 N9A         64.8600    25.0390    41.2190 N.pl3        1 NAD358   0.0000
    14 C8A         64.4750    23.9530    41.9370 C.2          1 NAD358   0.0000
    15 N7A         63.1310    23.7930    41.8370 N.2          1 NAD358   0.0000
    16 C5A         62.6480    24.7590    41.0610 C.ar         1 NAD358   0.0000
    17 C6A         61.3690    25.0870    40.6390 C.ar         1 NAD358   0.0000
    18 N6A         60.3100    24.2720    40.7900 N.pl3        1 NAD358   0.0000
    19 N1A         61.2330    26.2250    39.8620 N.ar         1 NAD358   0.0000
    20 C2A         62.3130    26.9640    39.4890 C.ar         1 NAD358   0.0000
    21 N3A         63.5800    26.6380    39.8880 N.ar         1 NAD358   0.0000
    22 C4A         63.7320    25.5590    40.6860 C.ar         1 NAD358   0.0000
    23 O3          69.5720    20.7380    40.8130 O.3          1 NAD358   0.0000
    24 PN          69.4750    19.1340    40.5880 P.3          1 NAD358   0.0000
    25 O1N         70.1580    18.9120    39.2960 O.co2        1 NAD358   0.0000
    26 O2N         68.0820    18.7110    40.8260 O.co2        1 NAD358  -1.0000
    27 O5D         70.4390    18.5820    41.7590 O.3          1 NAD358   0.0000
    28 C5D         71.8330    18.6960    41.6410 C.3          1 NAD358   0.0000
    29 C4D         72.4600    18.0100    42.8560 C.3          1 NAD358   0.0000
    30 O4D         72.0050    16.6590    42.9140 O.3          1 NAD358   0.0000
    31 C3D         73.9840    17.9650    42.8090 C.3          1 NAD358   0.0000
    32 O3D         74.5610    18.3940    44.0130 O.3          1 NAD358   0.0000
    33 C2D         74.2770    16.5050    42.5410 C.3          1 NAD358   0.0000
    34 O2D         75.5140    16.0460    43.0190 O.3          1 NAD358   0.0000
    35 C1D         73.1120    15.8410    43.2220 C.3          1 NAD358   0.0000
    36 N1N         72.9000    14.4410    42.8150 N.ar         1 NAD358   1.0000
    37 C2N         72.5690    13.5880    43.8120 C.ar         1 NAD358   0.0000
    38 C3N         72.3530    12.2390    43.5450 C.ar         1 NAD358   0.0000
    39 C7N         71.9630    11.3480    44.6940 C.2          1 NAD358   0.0000
    40 O7N         71.7900    10.0030    44.4370 O.2          1 NAD358   0.0000
    41 N7N         71.7870    11.8260    45.9250 N.am         1 NAD358   0.0000
    42 C4N         72.4280    11.7500    42.2270 C.ar         1 NAD358   0.0000
    43 C5N         72.7400    12.6460    41.1840 C.ar         1 NAD358   0.0000
    44 C6N         72.9810    14.0020    41.5020 C.ar         1 NAD358   0.0000
    45 H5B1        68.6081    23.0232    39.6749 H            1 NAD358   0.0000
    46 H5B2        69.9307    23.6571    40.3930 H            1 NAD358   0.0000
    47 H4B         68.7341    25.4732    39.6123 H            1 NAD358   0.0000
    48 H3B         69.1224    25.3298    42.2554 H            1 NAD358   0.0000
    49 H5          69.3382    27.4473    42.1750 H            1 NAD358   0.0000
    50 H2B         66.9830    24.8004    42.7496 H            1 NAD358   0.0000
    51 H7          66.5611    26.3821    44.0311 H            1 NAD358   0.0000
    52 H1B         66.0987    26.5393    40.6417 H            1 NAD358   0.0000
    53 H8A         65.0883    23.3611    42.4599 H            1 NAD358   0.0000
    54 H6A1        59.4082    24.5589    40.4668 H            1 NAD358   0.0000
    55 H6A2        60.4243    23.3791    41.2254 H            1 NAD358   0.0000
    56 H2A         62.1768    27.7664    38.9080 H            1 NAD358   0.0000
    57 H5D1        72.0954    19.6608    41.6215 H            1 NAD358   0.0000
    58 H5D2        72.1414    18.2496    40.8010 H            1 NAD358   0.0000
    59 H4D         72.1724    18.4879    43.6860 H            1 NAD358   0.0000
    60 H3D         74.3189    18.5251    42.0513 H            1 NAD358   0.0000
    61 H17         74.7143    19.3815    43.9759 H            1 NAD358   0.0000
    62 H2D         74.2221    16.3348    41.5571 H            1 NAD358   0.0000
    63 H19         75.5537    16.1667    44.0109 H            1 NAD358   0.0000
    64 H1D         73.2629    15.8668    44.2102 H            1 NAD358   0.0000
    65 H2N         72.4789    13.9293    44.7476 H            1 NAD358   0.0000
    66 H7N1        71.5279    11.2095    46.6685 H            1 NAD358   0.0000
    67 H7N2        71.9140    12.8013    46.1055 H            1 NAD358   0.0000
    68 H4N         72.2627    10.7829    42.0337 H            1 NAD358   0.0000
    69 H5N         72.7898    12.3281    40.2372 H            1 NAD358   0.0000
    70 H6N         73.2115    14.6491    40.7753 H            1 NAD358   0.0000
@<TRIPOS>BOND
     1    1    2      ar
     2    1    3      ar
     3    1    4       1
     4    1   23       1
     5    4    5       1
     6    5    6       1
     7    6    7       1
     8    6    8       1
     9    7   12       1
    10    8    9       1
    11    8   10       1
    12   10   11       1
    13   10   12       1
    14   12   13       1
    15   13   14       1
    16   13   22       1
    17   14   15       2
    18   15   16       1
    19   16   17      ar
    20   16   22      ar
    21   17   18       1
    22   17   19      ar
    23   19   20      ar
    24   20   21      ar
    25   21   22      ar
    26   23   24       1
    27   24   25      ar
    28   24   26      ar
    29   24   27       1
    30   27   28       1
    31   28   29       1
    32   29   30       1
    33   29   31       1
    34   30   35       1
    35   31   32       1
    36   31   33       1
    37   33   34       1
    38   33   35       1
    39   35   36       1
    40   36   37      ar
    41   36   44      ar
    42   37   38      ar
    43   38   39       1
    44   38   42      ar
    45   39   40       2
    46   39   41      am
    47   42   43      ar
    48   43   44      ar
    49   44   70       1
    50    5   45       1
    51    5   46       1
    52    6   47       1
    53    8   48       1
    54    9   49       1
    55   10   50       1
    56   11   51       1
    57   12   52       1
    58   14   53       1
    59   18   54       1
    60   18   55       1
    61   20   56       1
    62   43   69       1
    63   28   57       1
    64   28   58       1
    65   29   59       1
    66   31   60       1
    67   32   61       1
    68   33   62       1
    69   34   63       1
    70   35   64       1
    71   37   65       1
    72   41   66       1
    73   41   67       1
    74   42   68       1
@<TRIPOS>SUBSTRUCTURE
     1 NAD358      1 GROUP             4 A     NAD     0 **** NAD A 358
