@<TRIPOS>MOLECULE
1ipf_TNE_1_ligand
   24    25     1     0     0
SMALL
NO_CHARGES


@<TRIPOS>ATOM
     1 C1           4.9320    35.0050   146.4370 C.3          1 TNE262   0.0000
     2 C2           6.4260    34.6450   146.6970 C.3          1 TNE262   0.0000
     3 C3           6.5530    33.4120   147.6970 C.2          1 TNE262   0.0000
     4 O3           7.6090    32.7760   147.7840 O.2          1 TNE262   0.0000
     5 C4           5.2970    33.0150   148.5940 C.3          1 TNE262   0.0000
     6 C5           3.9900    33.6320   148.0570 C.3          1 TNE262   0.0000
     7 C6           3.6390    32.9320   146.7250 C.3          1 TNE262   0.0000
     8 C7           4.2360    33.8600   145.6400 C.3          1 TNE262   0.0000
     9 N8           4.2460    35.0470   147.7430 N.4          1 TNE262   1.0000
    10 C9           2.9600    35.7820   147.6140 C.3          1 TNE262   0.0000
    11 H1           4.8498    35.8791   145.9583 H            1 TNE262   0.0000
    12 H2           6.8884    35.4373   147.0951 H            1 TNE262   0.0000
    13 H3           6.8606    34.4071   145.8283 H            1 TNE262   0.0000
    14 H4           5.4495    33.3417   149.5268 H            1 TNE262   0.0000
    15 H5           5.2059    32.0192   148.6003 H            1 TNE262   0.0000
    16 H6           3.2476    33.5383   148.7204 H            1 TNE262   0.0000
    17 H7           2.6481    32.8516   146.6169 H            1 TNE262   0.0000
    18 H8           4.0539    32.0231   146.6818 H            1 TNE262   0.0000
    19 H9           4.9008    33.3656   145.0801 H            1 TNE262   0.0000
    20 H10          3.5138    34.2270   145.0537 H            1 TNE262   0.0000
    21 H11          2.5000    35.8072   148.5015 H            1 TNE262   0.0000
    22 H12          3.1394    36.7160   147.3049 H            1 TNE262   0.0000
    23 H13          2.3757    35.3172   146.9488 H            1 TNE262   0.0000
    24 H14          4.8287    35.4670   148.4387 H            1 TNE262   0.0000
@<TRIPOS>BOND
     1    1    2       1
     2    1    8       1
     3    1    9       1
     4    2    3       1
     5    3    4       2
     6    3    5       1
     7    5    6       1
     8    6    7       1
     9    6    9       1
    10    7    8       1
    11    9   10       1
    12    1   11       1
    13    2   12       1
    14    2   13       1
    15    5   14       1
    16    5   15       1
    17    6   16       1
    18    7   17       1
    19    7   18       1
    20    8   19       1
    21    8   20       1
    22   10   21       1
    23   10   22       1
    24   10   23       1
    25    9   24       1
@<TRIPOS>SUBSTRUCTURE
     1 TNE262      1 GROUP             4 A     TNE     0 **** TNE A 262
