@<TRIPOS>MOLECULE
1jpa_ANP_1_ligand
   15    16     1     0     0
SMALL
NO_CHARGES


@<TRIPOS>ATOM
     1 N9          -0.8510   -10.7980     5.2590 N.2          1 ANP400   0.0000
     2 C8          -1.7960   -10.2560     4.4220 C.2          1 ANP400   0.0000
     3 N7          -1.5790   -10.4720     3.1610 N.pl3        1 ANP400   0.0000
     4 C5          -0.4350   -11.1940     3.1400 C.ar         1 ANP400   0.0000
     5 C6           0.3150   -11.7320     2.0940 C.ar         1 ANP400   0.0000
     6 N6          -0.0640   -11.5710     0.8200 N.pl3        1 ANP400   0.0000
     7 N1           1.4430   -12.4230     2.4530 N.ar         1 ANP400   0.0000
     8 C2           1.7650   -12.5440     3.7430 C.ar         1 ANP400   0.0000
     9 N3           1.1490   -12.0870     4.8160 N.ar         1 ANP400   0.0000
    10 C4           0.0370   -11.4110     4.4230 C.ar         1 ANP400   0.0000
    11 H1          -2.5841    -9.7390     4.7561 H            1 ANP400   0.0000
    12 H2           0.4849   -11.9630     0.0817 H            1 ANP400   0.0000
    13 H3          -0.8959   -11.0587     0.6068 H            1 ANP400   0.0000
    14 H4           2.6020   -13.0606     3.9235 H            1 ANP400   0.0000
    15 H5          -2.1311   -10.1731     2.3827 H            1 ANP400   0.0000
@<TRIPOS>BOND
     1    1    2       2
     2    1   10       1
     3    2    3       1
     4    3    4       1
     5    4    5      ar
     6    4   10      ar
     7    5    6       1
     8    5    7      ar
     9    7    8      ar
    10    8    9      ar
    11    9   10      ar
    12    8   14       1
    13    2   11       1
    14    6   12       1
    15    6   13       1
    16    3   15       1
@<TRIPOS>SUBSTRUCTURE
     1 ANP400      1 GROUP             4 A     ANP     0 **** ANP A 400
