@<TRIPOS>MOLECULE
1ez4_NAD_4_ligand
   70    74     1     0     0
SMALL
NO_CHARGES


@<TRIPOS>ATOM
     1 PA          67.2300    37.6220     0.2210 P.3          1 NAD1355   0.0000
     2 O1A         66.8130    38.4720    -0.9350 O.co2        1 NAD1355   0.0000
     3 O2A         68.5400    36.9130     0.1790 O.co2        1 NAD1355  -1.0000
     4 O5B         67.1670    38.4820     1.5880 O.3          1 NAD1355   0.0000
     5 C5B         67.3210    37.9020     2.9010 C.3          1 NAD1355   0.0000
     6 C4B         67.3980    39.0180     3.9420 C.3          1 NAD1355   0.0000
     7 O4B         67.8930    38.5290     5.2160 O.3          1 NAD1355   0.0000
     8 C3B         68.3590    40.1050     3.4460 C.3          1 NAD1355   0.0000
     9 O3B         67.6730    41.3360     3.1260 O.3          1 NAD1355   0.0000
    10 C2B         69.4660    40.1390     4.5130 C.3          1 NAD1355   0.0000
    11 O2B         70.1840    41.3660     4.7660 O.3          1 NAD1355   0.0000
    12 C1B         68.7160    39.5980     5.7170 C.3          1 NAD1355   0.0000
    13 N9A         69.6390    39.2140     6.8070 N.pl3        1 NAD1355   0.0000
    14 C8A         70.7250    38.4240     6.7350 C.2          1 NAD1355   0.0000
    15 N7A         71.4010    38.4160     7.8960 N.2          1 NAD1355   0.0000
    16 C5A         70.6790    39.2160     8.6900 C.ar         1 NAD1355   0.0000
    17 C6A         70.8160    39.3440    10.0710 C.ar         1 NAD1355   0.0000
    18 N6A         71.8240    38.8640    10.7810 N.pl3        1 NAD1355   0.0000
    19 N1A         69.8230    39.9880    10.7250 N.ar         1 NAD1355   0.0000
    20 C2A         68.7680    40.4810    10.0750 C.ar         1 NAD1355   0.0000
    21 N3A         68.6280    40.3710     8.7510 N.ar         1 NAD1355   0.0000
    22 C4A         69.5690    39.7160     8.0370 C.ar         1 NAD1355   0.0000
    23 O3          66.1230    36.5020     0.4930 O.3          1 NAD1355   0.0000
    24 PN          64.5670    36.3230     0.1550 P.3          1 NAD1355   0.0000
    25 O1N         64.4090    35.9310    -1.2690 O.co2        1 NAD1355   0.0000
    26 O2N         63.7700    37.4860     0.6090 O.co2        1 NAD1355  -1.0000
    27 O5D         64.2600    35.0680     1.1160 O.3          1 NAD1355   0.0000
    28 C5D         64.4240    35.1880     2.5480 C.3          1 NAD1355   0.0000
    29 C4D         64.0120    33.9300     3.3190 C.3          1 NAD1355   0.0000
    30 O4D         62.6480    33.5390     2.9920 O.3          1 NAD1355   0.0000
    31 C3D         64.9720    32.7680     3.0260 C.3          1 NAD1355   0.0000
    32 O3D         65.4680    32.0230     4.1680 O.3          1 NAD1355   0.0000
    33 C2D         64.1410    31.9500     2.0410 C.3          1 NAD1355   0.0000
    34 O2D         64.6120    30.5910     2.0130 O.3          1 NAD1355   0.0000
    35 C1D         62.7000    32.1520     2.5620 C.3          1 NAD1355   0.0000
    36 N1N         61.5650    31.6660     1.6930 N.ar         1 NAD1355   1.0000
    37 C2N         60.5680    30.9220     2.3540 C.ar         1 NAD1355   0.0000
    38 C3N         59.7500    29.9900     1.6910 C.ar         1 NAD1355   0.0000
    39 C7N         58.9200    29.0040     2.5490 C.2          1 NAD1355   0.0000
    40 O7N         58.2830    28.0680     2.0550 O.2          1 NAD1355   0.0000
    41 N7N         58.9590    29.1470     3.8660 N.am         1 NAD1355   0.0000
    42 C4N         59.8710    29.8740     0.2910 C.ar         1 NAD1355   0.0000
    43 C5N         60.7960    30.6530    -0.4200 C.ar         1 NAD1355   0.0000
    44 C6N         61.6440    31.5330     0.2760 C.ar         1 NAD1355   0.0000
    45 H5B1        68.1608    37.3599     2.9300 H            1 NAD1355   0.0000
    46 H5B2        66.5374    37.3135     3.0999 H            1 NAD1355   0.0000
    47 H4B         66.4887    39.4139     4.0704 H            1 NAD1355   0.0000
    48 H3B         68.7738    39.7693     2.6003 H            1 NAD1355   0.0000
    49 H5          67.2088    41.6808     3.9419 H            1 NAD1355   0.0000
    50 H2B         70.1435    39.4501     4.2553 H            1 NAD1355   0.0000
    51 H7          69.7129    41.8872     5.4776 H            1 NAD1355   0.0000
    52 H1B         68.1143    40.3199     6.0588 H            1 NAD1355   0.0000
    53 H8A         70.9948    37.9086     5.9216 H            1 NAD1355   0.0000
    54 H6A1        71.8472    38.9995    11.7715 H            1 NAD1355   0.0000
    55 H6A2        72.5627    38.3657    10.3271 H            1 NAD1355   0.0000
    56 H2A         68.0560    40.9500    10.5976 H            1 NAD1355   0.0000
    57 H5D1        63.8640    35.9524     2.8676 H            1 NAD1355   0.0000
    58 H5D2        65.3869    35.3764     2.7414 H            1 NAD1355   0.0000
    59 H4D         64.0544    34.1333     4.2972 H            1 NAD1355   0.0000
    60 H3D         65.7600    33.1364     2.5327 H            1 NAD1355   0.0000
    61 H17         65.5177    32.6266     4.9637 H            1 NAD1355   0.0000
    62 H2D         64.2224    32.3483     1.1274 H            1 NAD1355   0.0000
    63 H19         64.9126    30.3614     1.0873 H            1 NAD1355   0.0000
    64 H1D         62.6426    31.6112     3.4012 H            1 NAD1355   0.0000
    65 H2N         60.4365    31.0625     3.3353 H            1 NAD1355   0.0000
    66 H7N1        58.4355    28.5283     4.4518 H            1 NAD1355   0.0000
    67 H7N2        59.5119    29.8736     4.2739 H            1 NAD1355   0.0000
    68 H4N         59.2892    29.2272    -0.2021 H            1 NAD1355   0.0000
    69 H5N         60.8521    30.5830    -1.4160 H            1 NAD1355   0.0000
    70 H6N         62.3138    32.0747    -0.2319 H            1 NAD1355   0.0000
@<TRIPOS>BOND
     1    1    2      ar
     2    1    3      ar
     3    1    4       1
     4    1   23       1
     5    4    5       1
     6    5    6       1
     7    6    7       1
     8    6    8       1
     9    7   12       1
    10    8    9       1
    11    8   10       1
    12   10   11       1
    13   10   12       1
    14   12   13       1
    15   13   14       1
    16   13   22       1
    17   14   15       2
    18   15   16       1
    19   16   17      ar
    20   16   22      ar
    21   17   18       1
    22   17   19      ar
    23   19   20      ar
    24   20   21      ar
    25   21   22      ar
    26   23   24       1
    27   24   25      ar
    28   24   26      ar
    29   24   27       1
    30   27   28       1
    31   28   29       1
    32   29   30       1
    33   29   31       1
    34   30   35       1
    35   31   32       1
    36   31   33       1
    37   33   34       1
    38   33   35       1
    39   35   36       1
    40   36   37      ar
    41   36   44      ar
    42   37   38      ar
    43   38   39       1
    44   38   42      ar
    45   39   40       2
    46   39   41      am
    47   42   43      ar
    48   43   44      ar
    49   44   70       1
    50    5   45       1
    51    5   46       1
    52    6   47       1
    53    8   48       1
    54    9   49       1
    55   10   50       1
    56   11   51       1
    57   12   52       1
    58   14   53       1
    59   18   54       1
    60   18   55       1
    61   20   56       1
    62   43   69       1
    63   28   57       1
    64   28   58       1
    65   29   59       1
    66   31   60       1
    67   32   61       1
    68   33   62       1
    69   34   63       1
    70   35   64       1
    71   37   65       1
    72   41   66       1
    73   41   67       1
    74   42   68       1
@<TRIPOS>SUBSTRUCTURE
     1 NAD1355     1 GROUP             4 D     NAD     0 **** NAD D1355
