@<TRIPOS>MOLECULE
3ldf_SAH_1_ligand
   46    48     1     0     0
SMALL
NO_CHARGES


@<TRIPOS>ATOM
     1 N           32.2810    -6.7990    10.3430 N.4          1 SAH401   1.0000
     2 CA          31.2910    -7.2540     9.3140 C.3          1 SAH401   0.0000
     3 CB          29.8430    -7.2800     9.9050 C.3          1 SAH401   0.0000
     4 CG          29.6300    -8.4360    10.9470 C.3          1 SAH401   0.0000
     5 SD          28.0690    -9.3070    10.7300 S.3          1 SAH401   0.0000
     6 C           31.5080    -6.3740     8.1210 C.2          1 SAH401   0.0000
     7 O           32.4990    -5.5860     8.1070 O.co2        1 SAH401   0.0000
     8 OXT         30.6810    -6.4090     7.1740 O.co2        1 SAH401  -1.0000
     9 C5'         28.3270   -10.6500    11.8940 C.3          1 SAH401   0.0000
    10 C4'         29.1580   -11.8370    11.3480 C.3          1 SAH401   0.0000
    11 O4'         29.8360   -12.5220    12.4160 O.3          1 SAH401   0.0000
    12 C3'         28.3380   -12.9300    10.6260 C.3          1 SAH401   0.0000
    13 O3'         28.9050   -13.0580     9.3270 O.3          1 SAH401   0.0000
    14 C2'         28.6070   -14.2470    11.3500 C.3          1 SAH401   0.0000
    15 O2'         28.9150   -15.2830    10.4020 O.3          1 SAH401   0.0000
    16 C1'         29.9170   -13.9290    12.1000 C.3          1 SAH401   0.0000
    17 N9          30.1950   -14.6780    13.3670 N.pl3        1 SAH401   0.0000
    18 C8          29.3790   -14.8070    14.4780 C.2          1 SAH401   0.0000
    19 N7          30.0200   -15.5110    15.4540 N.2          1 SAH401   0.0000
    20 C5          31.2590   -15.8290    14.9760 C.ar         1 SAH401   0.0000
    21 C6          32.4510   -16.5350    15.4750 C.ar         1 SAH401   0.0000
    22 N6          32.4390   -17.0670    16.7330 N.pl3        1 SAH401   0.0000
    23 N1          33.5560   -16.6100    14.6650 N.ar         1 SAH401   0.0000
    24 C2          33.5820   -16.0930    13.4140 C.ar         1 SAH401   0.0000
    25 N3          32.5360   -15.4230    12.9030 N.ar         1 SAH401   0.0000
    26 C4          31.3660   -15.2780    13.6090 C.ar         1 SAH401   0.0000
    27 H1          33.1975    -6.7905     9.9430 H            1 SAH401   0.0000
    28 H2          32.0428    -5.8777    10.6502 H            1 SAH401   0.0000
    29 HA          31.5307    -8.1887     9.0518 H            1 SAH401   0.0000
    30 HB1         29.1939    -7.4032     9.1543 H            1 SAH401   0.0000
    31 HB2         29.6671    -6.4058    10.3576 H            1 SAH401   0.0000
    32 HG1         29.6496    -8.0430    11.8663 H            1 SAH401   0.0000
    33 HG2         30.3771    -9.0935    10.8496 H            1 SAH401   0.0000
    34 H5'1        27.4311   -10.9988    12.1691 H            1 SAH401   0.0000
    35 H5'2        28.8009   -10.2811    12.6936 H            1 SAH401   0.0000
    36 H4'         29.8430   -11.4807    10.7125 H            1 SAH401   0.0000
    37 H3'         27.3631   -12.7101    10.5923 H            1 SAH401   0.0000
    38 H12         29.8659   -13.3231     9.4073 H            1 SAH401   0.0000
    39 H2'         27.8640   -14.5026    11.9686 H            1 SAH401   0.0000
    40 H14         29.9016   -15.3043    10.2403 H            1 SAH401   0.0000
    41 H1'         30.6835   -14.0699    11.4734 H            1 SAH401   0.0000
    42 H16         28.4530   -14.4372    14.5537 H            1 SAH401   0.0000
    43 H17         33.2440   -17.5481    17.0801 H            1 SAH401   0.0000
    44 H18         31.6252   -16.9754    17.3069 H            1 SAH401   0.0000
    45 H19         34.4025   -16.2132    12.8551 H            1 SAH401   0.0000
    46 H20         32.2633    -7.4253    11.1224 H            1 SAH401   0.0000
@<TRIPOS>BOND
     1    1    2       1
     2    2    3       1
     3    2    6       1
     4    3    4       1
     5    4    5       1
     6    5    9       1
     7    6    7      ar
     8    6    8      ar
     9    9   10       1
    10   10   11       1
    11   10   12       1
    12   11   16       1
    13   12   13       1
    14   12   14       1
    15   14   15       1
    16   14   16       1
    17   16   17       1
    18   17   18       1
    19   17   26       1
    20   18   19       2
    21   19   20       1
    22   20   21      ar
    23   20   26      ar
    24   21   22       1
    25   21   23      ar
    26   23   24      ar
    27   24   25      ar
    28   25   26      ar
    29    1   27       1
    30    1   28       1
    31    2   29       1
    32    3   30       1
    33    3   31       1
    34    4   32       1
    35    4   33       1
    36    1   46       1
    37    9   34       1
    38    9   35       1
    39   10   36       1
    40   12   37       1
    41   13   38       1
    42   14   39       1
    43   15   40       1
    44   16   41       1
    45   18   42       1
    46   22   43       1
    47   22   44       1
    48   24   45       1
@<TRIPOS>SUBSTRUCTURE
     1 SAH401      1 GROUP             4 A     SAH     0 **** SAH A 401
