@<TRIPOS>MOLECULE
3p3z_P3Z_1_ligand
   35    37     1     0     0
SMALL
NO_CHARGES


@<TRIPOS>ATOM
     1 CAA         22.2700     6.9360    42.3890 C.3          1 P3Z502   0.0000
     2 OAB         24.1250    13.9220    42.8080 O.3          1 P3Z502   0.0000
     3 CAC         24.2100     9.6770    43.1460 C.ar         1 P3Z502   0.0000
     4 CAD         22.2420     9.7700    41.7520 C.ar         1 P3Z502   0.0000
     5 CAE         24.0760    11.0380    43.4220 C.ar         1 P3Z502   0.0000
     6 CAF         22.1080    11.1300    42.0330 C.ar         1 P3Z502   0.0000
     7 CAG         22.4160    13.8190    47.3490 C.ar         1 P3Z502   0.0000
     8 CAH         21.5070    13.1560    45.3350 C.ar         1 P3Z502   0.0000
     9 CAI         23.7440    13.9680    45.4820 C.ar         1 P3Z502   0.0000
    10 CAJ         21.7000    15.4710    42.4120 C.3          1 P3Z502   0.0000
    11 CAK         22.0440    14.6840    41.1460 C.3          1 P3Z502   0.0000
    12 NAL         21.4020    13.3460    46.6410 N.ar         1 P3Z502   0.0000
    13 NAM         23.5690    14.1310    46.7830 N.ar         1 P3Z502   0.0000
    14 OAN         23.4390     7.7040    42.0460 O.3          1 P3Z502   0.0000
    15 CAO         23.2920     9.0370    42.3120 C.ar         1 P3Z502   0.0000
    16 CAP         23.0240    11.7750    42.8700 C.ar         1 P3Z502   0.0000
    17 CAQ         22.7070    13.4710    44.7020 C.ar         1 P3Z502   0.0000
    18 CAR         21.7110    13.9370    42.4410 C.3          1 P3Z502   0.0000
    19 CAS         22.8980    13.2830    43.1880 C.3          1 P3Z502   0.0000
    20 HAA1        22.4299     5.9722    42.1755 H            1 P3Z502   0.0000
    21 HAA2        22.0816     7.0341    43.3662 H            1 P3Z502   0.0000
    22 HAA3        21.4868     7.2684    41.8635 H            1 P3Z502   0.0000
    23 HAB         24.5344    13.4281    42.0409 H            1 P3Z502   0.0000
    24 HAC         24.9656     9.1588    43.5467 H            1 P3Z502   0.0000
    25 HAD         21.5850     9.3185    41.1483 H            1 P3Z502   0.0000
    26 HAE         24.7380    11.4902    44.0197 H            1 P3Z502   0.0000
    27 HAF         21.3514    11.6473    41.6330 H            1 P3Z502   0.0000
    28 HAG         22.3069    13.9431    48.3353 H            1 P3Z502   0.0000
    29 HAH         20.7368    12.7920    44.8112 H            1 P3Z502   0.0000
    30 HAI         24.6203    14.2019    45.0609 H            1 P3Z502   0.0000
    31 HAJ1        20.8333    15.9661    42.4730 H            1 P3Z502   0.0000
    32 HAJ2        22.4120    15.9853    42.8900 H            1 P3Z502   0.0000
    33 HAK1        22.9809    14.6847    40.7964 H            1 P3Z502   0.0000
    34 HAK2        21.4022    14.6655    40.3794 H            1 P3Z502   0.0000
    35 HAR         20.8267    13.4725    42.4885 H            1 P3Z502   0.0000
@<TRIPOS>BOND
     1    1   14       1
     2    2   19       1
     3    3    5      ar
     4    3   15      ar
     5    4    6      ar
     6    4   15      ar
     7    5   16      ar
     8    6   16      ar
     9    7   12      ar
    10    7   13      ar
    11    8   12      ar
    12    8   17      ar
    13    9   13      ar
    14    9   17      ar
    15   10   11       1
    16   10   18       1
    17   11   18       1
    18   14   15       1
    19   16   19       1
    20   17   19       1
    21   18   19       1
    22    1   20       1
    23    1   21       1
    24    1   22       1
    25    2   23       1
    26    3   24       1
    27    4   25       1
    28    5   26       1
    29    6   27       1
    30    7   28       1
    31    8   29       1
    32    9   30       1
    33   10   31       1
    34   10   32       1
    35   11   33       1
    36   11   34       1
    37   18   35       1
@<TRIPOS>SUBSTRUCTURE
     1 P3Z502      1 GROUP             4 A     P3Z     0 **** P3Z A 502
