@<TRIPOS>MOLECULE
1xdi_FAD_2_ligand
   84    89     1     0     0
SMALL
NO_CHARGES


@<TRIPOS>ATOM
     1 PA           6.5600    39.9400   -32.3990 P.3          1 FAD999   0.0000
     2 O1A          5.3500    39.1600   -32.8320 O.co2        1 FAD999   0.0000
     3 O2A          6.3520    41.0360   -31.4380 O.co2        1 FAD999  -1.0000
     4 O5B          7.1800    40.6030   -33.6740 O.3          1 FAD999   0.0000
     5 C5B          8.2110    40.1190   -34.5130 C.3          1 FAD999   0.0000
     6 C4B          8.3010    41.1860   -35.5660 C.3          1 FAD999   0.0000
     7 O4B          9.3530    40.9950   -36.5100 O.3          1 FAD999   0.0000
     8 C3B          7.0460    41.4630   -36.4540 C.3          1 FAD999   0.0000
     9 O3B          6.2240    42.4330   -35.8240 O.3          1 FAD999   0.0000
    10 C2B          7.5670    41.8720   -37.7660 C.3          1 FAD999   0.0000
    11 O2B          7.6310    43.2680   -38.0740 O.3          1 FAD999   0.0000
    12 C1B          8.9630    41.3270   -37.8190 C.3          1 FAD999   0.0000
    13 N9A          9.3570    40.3030   -38.7310 N.pl3        1 FAD999   0.0000
    14 C8A          8.8660    39.0370   -39.0760 C.2          1 FAD999   0.0000
    15 N7A          9.5890    38.4340   -39.9960 N.2          1 FAD999   0.0000
    16 C5A         10.6360    39.3360   -40.2900 C.ar         1 FAD999   0.0000
    17 C6A         11.7740    39.3390   -41.1720 C.ar         1 FAD999   0.0000
    18 N6A         12.1040    38.3270   -41.9710 N.pl3        1 FAD999   0.0000
    19 N1A         12.5950    40.4570   -41.1830 N.ar         1 FAD999   0.0000
    20 C2A         12.3520    41.5380   -40.3880 C.ar         1 FAD999   0.0000
    21 N3A         11.2800    41.6210   -39.4960 N.ar         1 FAD999   0.0000
    22 C4A         10.4700    40.3970   -39.5630 C.ar         1 FAD999   0.0000
    23 N1           2.0420    38.6880   -24.1090 N.2          1 FAD999   0.0000
    24 C2           2.2130    39.2330   -22.8710 C.2          1 FAD999   0.0000
    25 O2           3.2660    39.1070   -22.2510 O.2          1 FAD999   0.0000
    26 N3           1.1780    39.9380   -22.3020 N.pl3        1 FAD999   0.0000
    27 C4          -0.0780    40.1590   -22.8900 C.2          1 FAD999   0.0000
    28 O4          -0.9430    40.8110   -22.2600 O.2          1 FAD999   0.0000
    29 C4X         -0.2460    39.6190   -24.1300 C.2          1 FAD999   0.0000
    30 N5          -1.5200    39.8420   -24.7710 N.2          1 FAD999   0.0000
    31 C5X         -1.6880    39.2810   -26.0800 C.ar         1 FAD999   0.0000
    32 C6          -2.9030    39.4490   -26.7920 C.ar         1 FAD999   0.0000
    33 C7          -3.1100    38.9140   -28.1090 C.ar         1 FAD999   0.0000
    34 C7M         -4.4290    39.1230   -28.8320 C.3          1 FAD999   0.0000
    35 C8          -2.0530    38.2040   -28.7080 C.ar         1 FAD999   0.0000
    36 C8M         -2.1530    37.6170   -30.0960 C.3          1 FAD999   0.0000
    37 C9          -0.8470    38.0080   -28.0470 C.ar         1 FAD999   0.0000
    38 C9A         -0.6160    38.5140   -26.7630 C.ar         1 FAD999   0.0000
    39 N10          0.6530    38.3510   -25.9860 N.pl3        1 FAD999   0.0000
    40 C10          0.8230    38.8920   -24.7350 C.2          1 FAD999   0.0000
    41 C1'          1.7210    37.6170   -26.6150 C.3          1 FAD999   0.0000
    42 C2'          2.8200    38.4680   -27.0990 C.3          1 FAD999   0.0000
    43 O2'          2.1870    39.3930   -28.0270 O.3          1 FAD999   0.0000
    44 C3'          3.9270    37.7660   -27.8160 C.3          1 FAD999   0.0000
    45 O3'          4.5630    36.9210   -26.8910 O.3          1 FAD999   0.0000
    46 C4'          5.0920    38.6360   -28.2910 C.3          1 FAD999   0.0000
    47 O4'          4.4640    39.5400   -29.2620 O.3          1 FAD999   0.0000
    48 C5'          6.1140    38.0010   -29.1000 C.3          1 FAD999   0.0000
    49 O5'          7.1100    38.9480   -29.3630 O.3          1 FAD999   0.0000
    50 P            8.2570    38.7350   -30.3690 P.3          1 FAD999   0.0000
    51 O1P          9.1350    39.8840   -30.2170 O.co2        1 FAD999   0.0000
    52 O2P          8.8480    37.3740   -30.2410 O.co2        1 FAD999  -1.0000
    53 O3P          7.4740    38.8060   -31.7290 O.3          1 FAD999   0.0000
    54 H5B1         7.9665    39.2359   -34.9134 H            1 FAD999   0.0000
    55 H5B2         9.0725    40.0312   -34.0130 H            1 FAD999   0.0000
    56 H4B          8.5026    42.0402   -35.0867 H            1 FAD999   0.0000
    57 H3B          6.5272    40.6146   -36.5592 H            1 FAD999   0.0000
    58 H5           5.4209    42.6097   -36.3931 H            1 FAD999   0.0000
    59 H2B          7.0257    41.4186   -38.4741 H            1 FAD999   0.0000
    60 H7           8.2215    43.7288   -37.4115 H            1 FAD999   0.0000
    61 H1B          9.5321    42.1130   -38.0605 H            1 FAD999   0.0000
    62 H8A          8.0491    38.6324   -38.6650 H            1 FAD999   0.0000
    63 H6A1        12.9097    38.3966   -42.5593 H            1 FAD999   0.0000
    64 H6A2        11.5463    37.4971   -41.9831 H            1 FAD999   0.0000
    65 H2A         12.9772    42.3162   -40.4469 H            1 FAD999   0.0000
    66 H13          1.3329    40.3257   -21.3933 H            1 FAD999   0.0000
    67 H14         -3.6456    39.9606   -26.3598 H            1 FAD999   0.0000
    68 H7M1        -4.3905    38.6835   -29.7294 H            1 FAD999   0.0000
    69 H7M2        -5.1707    38.7206   -28.2954 H            1 FAD999   0.0000
    70 H7M3        -4.5944    40.1025   -28.9473 H            1 FAD999   0.0000
    71 H8M1        -1.2954    37.1569   -30.3259 H            1 FAD999   0.0000
    72 H8M2        -2.9037    36.9570   -30.1255 H            1 FAD999   0.0000
    73 H8M3        -2.3261    38.3484   -30.7556 H            1 FAD999   0.0000
    74 H21         -0.1227    37.4901   -28.5021 H            1 FAD999   0.0000
    75 H1'1         1.3436    37.1158   -27.3937 H            1 FAD999   0.0000
    76 H1'2         2.0929    36.9691   -25.9502 H            1 FAD999   0.0000
    77 H2'          3.2004    38.9823   -26.3304 H            1 FAD999   0.0000
    78 H25          1.7595    38.8789   -28.7706 H            1 FAD999   0.0000
    79 H3'          3.5613    37.2316   -28.5780 H            1 FAD999   0.0000
    80 H27          4.9357    36.1251   -27.3680 H            1 FAD999   0.0000
    81 H4'          5.4964    39.1453   -27.5314 H            1 FAD999   0.0000
    82 H29          3.4883    39.3314   -29.3290 H            1 FAD999   0.0000
    83 H5'1         5.7156    37.6804   -29.9593 H            1 FAD999   0.0000
    84 H5'2         6.5056    37.2257   -28.6044 H            1 FAD999   0.0000
@<TRIPOS>BOND
     1    1    2      ar
     2    1    3      ar
     3    1    4       1
     4    1   53       1
     5    4    5       1
     6    5    6       1
     7    6    7       1
     8    6    8       1
     9    7   12       1
    10    8    9       1
    11    8   10       1
    12   10   11       1
    13   10   12       1
    14   12   13       1
    15   13   14       1
    16   13   22       1
    17   14   15       2
    18   15   16       1
    19   16   17      ar
    20   16   22      ar
    21   17   18       1
    22   17   19      ar
    23   19   20      ar
    24   20   21      ar
    25   21   22      ar
    26   23   24       1
    27   23   40       2
    28   24   25       2
    29   24   26       1
    30   26   27       1
    31   27   28       2
    32   27   29       1
    33   29   30       2
    34   29   40       1
    35   30   31       1
    36   31   32      ar
    37   31   38      ar
    38   32   33      ar
    39   33   34       1
    40   33   35      ar
    41   35   36       1
    42   35   37      ar
    43   37   38      ar
    44   38   39       1
    45   39   40       1
    46   39   41       1
    47   41   42       1
    48   42   43       1
    49   42   44       1
    50   44   45       1
    51   44   46       1
    52   46   47       1
    53   46   48       1
    54   48   49       1
    55   49   50       1
    56   50   51      ar
    57   50   52      ar
    58   50   53       1
    59   48   84       1
    60    5   54       1
    61    5   55       1
    62    6   56       1
    63    8   57       1
    64    9   58       1
    65   10   59       1
    66   11   60       1
    67   12   61       1
    68   14   62       1
    69   18   63       1
    70   18   64       1
    71   20   65       1
    72   26   66       1
    73   32   67       1
    74   34   68       1
    75   34   69       1
    76   34   70       1
    77   36   71       1
    78   36   72       1
    79   36   73       1
    80   37   74       1
    81   41   75       1
    82   41   76       1
    83   42   77       1
    84   43   78       1
    85   44   79       1
    86   45   80       1
    87   46   81       1
    88   47   82       1
    89   48   83       1
@<TRIPOS>SUBSTRUCTURE
     1 FAD999      1 GROUP             4 B     FAD     0 **** FAD B 999
