@<TRIPOS>MOLECULE
1wsv_THH_2_ligand
   56    58     1     0     0
SMALL
NO_CHARGES


@<TRIPOS>ATOM
     1 OE1         11.5200    16.4120     4.2870 O.co2        1 THH4001   0.0000
     2 CD          11.2860    16.6600     5.5070 C.2          1 THH4001   0.0000
     3 OE2         12.1420    17.2300     6.2250 O.co2        1 THH4001  -1.0000
     4 CG           9.9240    16.2210     5.9920 C.3          1 THH4001   0.0000
     5 CB           9.9330    14.7190     6.1960 C.3          1 THH4001   0.0000
     6 CA           8.6430    14.2660     6.8370 C.3          1 THH4001   0.0000
     7 CT           8.2360    12.8690     6.5060 C.2          1 THH4001   0.0000
     8 O1           8.9640    11.9040     6.8040 O.co2        1 THH4001   0.0000
     9 O2           7.1350    12.7560     5.9260 O.co2        1 THH4001  -1.0000
    10 N            8.7590    14.4180     8.2660 N.am         1 THH4001   0.0000
    11 C            7.9710    15.2520     8.9580 C.2          1 THH4001   0.0000
    12 O            7.0820    15.9790     8.5320 O.2          1 THH4001   0.0000
    13 C12          8.2120    15.2830    10.4510 C.ar         1 THH4001   0.0000
    14 C13          8.6500    14.1950    11.2630 C.ar         1 THH4001   0.0000
    15 C14          8.8590    14.2590    12.6900 C.ar         1 THH4001   0.0000
    16 C15          8.6300    15.4590    13.3870 C.ar         1 THH4001   0.0000
    17 C16          8.2020    16.5210    12.5720 C.ar         1 THH4001   0.0000
    18 C17          8.0020    16.4530    11.1850 C.ar         1 THH4001   0.0000
    19 N10          8.7410    15.7530    14.6830 N.pl3        1 THH4001   0.0000
    20 C9           9.9090    16.4490    15.2560 C.3          1 THH4001   0.0000
    21 C6           9.3820    17.3330    16.3950 C.3          1 THH4001   0.0000
    22 C7          10.2020    18.4780    16.9220 C.3          1 THH4001   0.0000
    23 N8           9.9480    19.6760    16.1290 N.pl3        1 THH4001   0.0000
    24 C8A          8.7710    19.9530    15.5230 C.2          1 THH4001   0.0000
    25 N1           8.7350    21.1830    14.9160 N.2          1 THH4001   0.0000
    26 C4A          7.6690    18.9230    15.5630 C.2          1 THH4001   0.0000
    27 N5           7.9610    17.7190    16.2380 N.pl3        1 THH4001   0.0000
    28 C11          6.8340    16.9940    16.7720 C.3          1 THH4001   0.0000
    29 C4           6.4460    19.4050    14.8670 C.2          1 THH4001   0.0000
    30 O4           5.2560    18.8410    14.6780 O.2          1 THH4001   0.0000
    31 N3           6.5640    20.6620    14.3030 N.pl3        1 THH4001   0.0000
    32 C2           7.6140    21.5500    14.2880 C.2          1 THH4001   0.0000
    33 NA2          7.4760    22.7410    13.6490 N.pl3        1 THH4001   0.0000
    34 HG1          9.2320    16.4628     5.3118 H            1 THH4001   0.0000
    35 HG2          9.7138    16.6756     6.8575 H            1 THH4001   0.0000
    36 HB1         10.6997    14.4717     6.7885 H            1 THH4001   0.0000
    37 HB2         10.0370    14.2670     5.3101 H            1 THH4001   0.0000
    38 HA           7.9162    14.8773     6.5237 H            1 THH4001   0.0000
    39 H6           9.4487    13.8846     8.7557 H            1 THH4001   0.0000
    40 H7           8.8257    13.3214    10.8092 H            1 THH4001   0.0000
    41 H8           9.1679    13.4468    13.1849 H            1 THH4001   0.0000
    42 H9           8.0253    17.3984    13.0180 H            1 THH4001   0.0000
    43 H10          7.6971    17.2743    10.7028 H            1 THH4001   0.0000
    44 H11          7.9965    15.4889    15.2962 H            1 THH4001   0.0000
    45 H12         10.3504    17.0131    14.5581 H            1 THH4001   0.0000
    46 H13         10.5659    15.7841    15.6117 H            1 THH4001   0.0000
    47 H14          9.3563    16.7029    17.1711 H            1 THH4001   0.0000
    48 H15         11.1726    18.2437    16.8674 H            1 THH4001   0.0000
    49 H16          9.9543    18.6524    17.8750 H            1 THH4001   0.0000
    50 H17         10.6928    20.3354    16.0268 H            1 THH4001   0.0000
    51 H18          5.9872    17.4649    16.5246 H            1 THH4001   0.0000
    52 H19          6.8235    16.0684    16.3936 H            1 THH4001   0.0000
    53 H20          6.9101    16.9461    17.7680 H            1 THH4001   0.0000
    54 HA21         6.6149    22.9674    13.1938 H            1 THH4001   0.0000
    55 HA22         8.2356    23.3913    13.6339 H            1 THH4001   0.0000
    56 H23          5.7457    20.9797    13.8240 H            1 THH4001   0.0000
@<TRIPOS>BOND
     1    1    2      ar
     2    2    3      ar
     3    2    4       1
     4    4    5       1
     5    5    6       1
     6    6    7       1
     7    6   10       1
     8    7    8      ar
     9    7    9      ar
    10   10   11      am
    11   11   12       2
    12   11   13       1
    13   13   14      ar
    14   13   18      ar
    15   14   15      ar
    16   15   16      ar
    17   16   17      ar
    18   16   19       1
    19   17   18      ar
    20   19   20       1
    21   20   21       1
    22   21   22       1
    23   21   27       1
    24   22   23       1
    25   23   24       1
    26   24   25       1
    27   24   26       2
    28   25   32       2
    29   26   27       1
    30   26   29       1
    31   27   28       1
    32   29   30       2
    33   29   31       1
    34   31   32       1
    35   32   33       1
    36   33   55       1
    37    4   34       1
    38    4   35       1
    39    5   36       1
    40    5   37       1
    41    6   38       1
    42   33   54       1
    43   10   39       1
    44   14   40       1
    45   15   41       1
    46   17   42       1
    47   18   43       1
    48   19   44       1
    49   20   45       1
    50   20   46       1
    51   21   47       1
    52   22   48       1
    53   22   49       1
    54   23   50       1
    55   28   53       1
    56   28   51       1
    57   28   52       1
    58   31   56       1
@<TRIPOS>SUBSTRUCTURE
     1 THH4001     1 GROUP             4 B     THH     0 **** THH B4001
