@<TRIPOS>MOLECULE
4fqt_0VT_1_ligand
   23    22     1     0     0
SMALL
NO_CHARGES


@<TRIPOS>ATOM
     1 C4           7.0750    11.2900    14.2760 C.3          1 0VT201   0.0000
     2 C5           6.4800    10.9430    15.6080 C.3          1 0VT201   0.0000
     3 C6           7.4500    10.2210    16.4840 C.2          1 0VT201   0.0000
     4 C7           7.4370    11.6090    11.3360 C.3          1 0VT201   0.0000
     5 C8           8.8870    10.1950    16.1080 C.3          1 0VT201   0.0000
     6 C1           4.9530    12.2370    11.1650 C.3          1 0VT201   0.0000
     7 C2           6.1210    11.8390    12.0010 C.2          1 0VT201   0.0000
     8 C3           5.9580    11.6910    13.3630 C.2          1 0VT201   0.0000
     9 O9           7.0830     9.6620    17.5120 O.2          1 0VT201   0.0000
    10 H1           7.5526    10.4959    13.9000 H            1 0VT201   0.0000
    11 H2           7.7187    12.0483    14.3787 H            1 0VT201   0.0000
    12 H3           5.6808    10.3599    15.4624 H            1 0VT201   0.0000
    13 H4           6.1983    11.7866    16.0652 H            1 0VT201   0.0000
    14 H5           8.1166    11.3502    12.0224 H            1 0VT201   0.0000
    15 H6           7.3466    10.8748    10.6631 H            1 0VT201   0.0000
    16 H7           7.7296    12.4478    10.8769 H            1 0VT201   0.0000
    17 H8           9.4009     9.6760    16.7910 H            1 0VT201   0.0000
    18 H9           8.9896     9.7610    15.2130 H            1 0VT201   0.0000
    19 H10          9.2378    11.1306    16.0669 H            1 0VT201   0.0000
    20 H11          4.1494    12.3533    11.7488 H            1 0VT201   0.0000
    21 H12          5.1544    13.0989    10.6996 H            1 0VT201   0.0000
    22 H13          4.7715    11.5259    10.4858 H            1 0VT201   0.0000
    23 H14          5.0546    11.8588    13.7576 H            1 0VT201   0.0000
@<TRIPOS>BOND
     1    1    2       1
     2    1    8       1
     3    2    3       1
     4    3    5       1
     5    3    9       2
     6    4    7       1
     7    6    7       1
     8    7    8       2
     9    1   10       1
    10    1   11       1
    11    2   12       1
    12    2   13       1
    13    4   14       1
    14    4   15       1
    15    4   16       1
    16    5   17       1
    17    5   18       1
    18    5   19       1
    19    6   20       1
    20    6   21       1
    21    6   22       1
    22    8   23       1
@<TRIPOS>SUBSTRUCTURE
     1 0VT201      1 GROUP             4 A     0VT     0 **** 0VT A 201
