@<TRIPOS>MOLECULE
2hj3_FAD_2_ligand
   84    89     1     0     0
SMALL
NO_CHARGES


@<TRIPOS>ATOM
     1 PA          26.1660   -32.6460     2.1550 P.3          1 FAD2001   0.0000
     2 O1A         26.9650   -31.3910     2.2570 O.co2        1 FAD2001   0.0000
     3 O2A         25.0810   -33.0470     3.1010 O.co2        1 FAD2001  -1.0000
     4 O5B         25.6390   -33.3090     0.8440 O.3          1 FAD2001   0.0000
     5 C5B         24.5220   -33.6020     0.0250 C.3          1 FAD2001   0.0000
     6 C4B         25.1950   -34.4160    -1.0590 C.3          1 FAD2001   0.0000
     7 O4B         24.7240   -33.5230    -2.1030 O.3          1 FAD2001   0.0000
     8 C3B         26.6570   -34.7890    -1.4350 C.3          1 FAD2001   0.0000
     9 O3B         27.0670   -36.0640    -0.9440 O.3          1 FAD2001   0.0000
    10 C2B         26.7010   -34.5520    -2.8810 C.3          1 FAD2001   0.0000
    11 O2B         26.1800   -35.5690    -3.6800 O.3          1 FAD2001   0.0000
    12 C1B         25.8310   -33.2930    -2.9840 C.3          1 FAD2001   0.0000
    13 N9A         26.3770   -31.9690    -2.9680 N.pl3        1 FAD2001   0.0000
    14 C8A         27.5170   -31.3920    -2.3550 C.2          1 FAD2001   0.0000
    15 N7A         27.8030   -30.1430    -2.5660 N.2          1 FAD2001   0.0000
    16 C5A         26.7730   -29.7350    -3.4040 C.ar         1 FAD2001   0.0000
    17 C6A         26.4500   -28.5400    -4.0770 C.ar         1 FAD2001   0.0000
    18 N6A         27.3000   -27.4990    -3.9700 N.pl3        1 FAD2001   0.0000
    19 N1A         25.3210   -28.5300    -4.8900 N.ar         1 FAD2001   0.0000
    20 C2A         24.5170   -29.5950    -5.1370 C.ar         1 FAD2001   0.0000
    21 N3A         24.8330   -30.7690    -4.4190 N.ar         1 FAD2001   0.0000
    22 C4A         25.9920   -30.7820    -3.5910 C.ar         1 FAD2001   0.0000
    23 N1          26.9410   -28.3600     9.3790 N.2          1 FAD2001   0.0000
    24 C2          27.8760   -27.8920    10.2810 C.2          1 FAD2001   0.0000
    25 O2          28.6170   -28.6430    10.9450 O.2          1 FAD2001   0.0000
    26 N3          27.8820   -26.5080    10.3170 N.pl3        1 FAD2001   0.0000
    27 C4          27.0550   -25.6670     9.5320 C.2          1 FAD2001   0.0000
    28 O4          27.1910   -24.4410     9.8490 O.2          1 FAD2001   0.0000
    29 C4X         26.1480   -26.2010     8.6310 C.2          1 FAD2001   0.0000
    30 N5          25.1780   -25.4540     7.8760 N.2          1 FAD2001   0.0000
    31 C5X         24.1370   -25.9750     7.0700 C.ar         1 FAD2001   0.0000
    32 C6          23.1890   -25.1220     6.4640 C.ar         1 FAD2001   0.0000
    33 C7          22.1260   -25.6970     5.7050 C.ar         1 FAD2001   0.0000
    34 C7M         21.0870   -24.7260     5.1270 C.3          1 FAD2001   0.0000
    35 C8          22.0280   -27.1120     5.5220 C.ar         1 FAD2001   0.0000
    36 C8M         21.0330   -27.9190     4.6930 C.3          1 FAD2001   0.0000
    37 C9          22.9750   -27.9300     6.1520 C.ar         1 FAD2001   0.0000
    38 C9A         24.0240   -27.4540     6.9800 C.ar         1 FAD2001   0.0000
    39 N10         25.1340   -28.1110     7.7160 N.pl3        1 FAD2001   0.0000
    40 C10         26.0910   -27.6260     8.5740 C.2          1 FAD2001   0.0000
    41 C1'         25.3330   -29.4920     7.4250 C.3          1 FAD2001   0.0000
    42 C2'         26.2480   -29.8980     6.3160 C.3          1 FAD2001   0.0000
    43 O2'         26.2590   -28.8650     5.2790 O.3          1 FAD2001   0.0000
    44 C3'         26.1630   -31.3340     5.8960 C.3          1 FAD2001   0.0000
    45 O3'         24.8930   -31.5440     5.2990 O.3          1 FAD2001   0.0000
    46 C4'         26.7050   -32.5530     6.6250 C.3          1 FAD2001   0.0000
    47 O4'         28.0140   -32.2410     7.1760 O.3          1 FAD2001   0.0000
    48 C5'         26.9230   -33.7740     5.8290 C.3          1 FAD2001   0.0000
    49 O5'         27.8580   -33.6890     4.7480 O.3          1 FAD2001   0.0000
    50 P           27.8230   -34.7130     3.5660 P.3          1 FAD2001   0.0000
    51 O1P         29.2750   -34.6870     3.4240 O.co2        1 FAD2001   0.0000
    52 O2P         27.0550   -35.9630     3.7680 O.co2        1 FAD2001  -1.0000
    53 O3P         27.2370   -33.8040     2.3630 O.3          1 FAD2001   0.0000
    54 H5B1        24.1027   -32.7714    -0.3413 H            1 FAD2001   0.0000
    55 H5B2        23.8325   -34.1352     0.5151 H            1 FAD2001   0.0000
    56 H4B         24.6608   -35.2565    -1.1489 H            1 FAD2001   0.0000
    57 H3B         27.2513   -34.1069    -1.0089 H            1 FAD2001   0.0000
    58 H5          26.8553   -36.7666    -1.6234 H            1 FAD2001   0.0000
    59 H2B         27.6372   -34.3429    -3.1634 H            1 FAD2001   0.0000
    60 H7          26.2576   -35.3095    -4.6426 H            1 FAD2001   0.0000
    61 H1B         25.4232   -33.3657    -3.8942 H            1 FAD2001   0.0000
    62 H8A         28.1003   -31.9458    -1.7608 H            1 FAD2001   0.0000
    63 H6A1        27.0973   -26.6380    -4.4365 H            1 FAD2001   0.0000
    64 H6A2        28.1332   -27.5878    -3.4241 H            1 FAD2001   0.0000
    65 H2A         23.7543   -29.5514    -5.7822 H            1 FAD2001   0.0000
    66 H13         28.5209   -26.0668    10.9472 H            1 FAD2001   0.0000
    67 H14         23.2614   -24.1298     6.5651 H            1 FAD2001   0.0000
    68 H7M1        20.3964   -25.2405     4.6188 H            1 FAD2001   0.0000
    69 H7M2        20.6477   -24.2251     5.8728 H            1 FAD2001   0.0000
    70 H7M3        21.5401   -24.0798     4.5129 H            1 FAD2001   0.0000
    71 H8M1        21.2404   -28.8935     4.7791 H            1 FAD2001   0.0000
    72 H8M2        20.1054   -27.7452     5.0236 H            1 FAD2001   0.0000
    73 H8M3        21.1012   -27.6472     3.7331 H            1 FAD2001   0.0000
    74 H21         22.9068   -28.9172     6.0081 H            1 FAD2001   0.0000
    75 H1'1        24.4339   -29.8745     7.2120 H            1 FAD2001   0.0000
    76 H1'2        25.6859   -29.9149     8.2597 H            1 FAD2001   0.0000
    77 H2'         27.1575   -29.8277     6.7257 H            1 FAD2001   0.0000
    78 H25         26.8727   -29.1416     4.5395 H            1 FAD2001   0.0000
    79 H3'         26.7498   -31.3257     5.0863 H            1 FAD2001   0.0000
    80 H27         24.9640   -32.2644     4.6091 H            1 FAD2001   0.0000
    81 H4'         26.0869   -32.7723     7.3799 H            1 FAD2001   0.0000
    82 H29         28.5682   -33.0727     7.2100 H            1 FAD2001   0.0000
    83 H5'1        26.0406   -34.0440     5.4437 H            1 FAD2001   0.0000
    84 H5'2        27.2466   -34.4861     6.4520 H            1 FAD2001   0.0000
@<TRIPOS>BOND
     1    1    2      ar
     2    1    3      ar
     3    1    4       1
     4    1   53       1
     5    4    5       1
     6    5    6       1
     7    6    7       1
     8    6    8       1
     9    7   12       1
    10    8    9       1
    11    8   10       1
    12   10   11       1
    13   10   12       1
    14   12   13       1
    15   13   14       1
    16   13   22       1
    17   14   15       2
    18   15   16       1
    19   16   17      ar
    20   16   22      ar
    21   17   18       1
    22   17   19      ar
    23   19   20      ar
    24   20   21      ar
    25   21   22      ar
    26   23   24       1
    27   23   40       2
    28   24   25       2
    29   24   26       1
    30   26   27       1
    31   27   28       2
    32   27   29       1
    33   29   30       2
    34   29   40       1
    35   30   31       1
    36   31   32      ar
    37   31   38      ar
    38   32   33      ar
    39   33   34       1
    40   33   35      ar
    41   35   36       1
    42   35   37      ar
    43   37   38      ar
    44   38   39       1
    45   39   40       1
    46   39   41       1
    47   41   42       1
    48   42   43       1
    49   42   44       1
    50   44   45       1
    51   44   46       1
    52   46   47       1
    53   46   48       1
    54   48   49       1
    55   49   50       1
    56   50   51      ar
    57   50   52      ar
    58   50   53       1
    59   48   84       1
    60    5   54       1
    61    5   55       1
    62    6   56       1
    63    8   57       1
    64    9   58       1
    65   10   59       1
    66   11   60       1
    67   12   61       1
    68   14   62       1
    69   18   63       1
    70   18   64       1
    71   20   65       1
    72   26   66       1
    73   32   67       1
    74   34   68       1
    75   34   69       1
    76   34   70       1
    77   36   71       1
    78   36   72       1
    79   36   73       1
    80   37   74       1
    81   41   75       1
    82   41   76       1
    83   42   77       1
    84   43   78       1
    85   44   79       1
    86   45   80       1
    87   46   81       1
    88   47   82       1
    89   48   83       1
@<TRIPOS>SUBSTRUCTURE
     1 FAD2001     1 GROUP             4 B     FAD     0 **** FAD B2001
