@<TRIPOS>MOLECULE
3pxv_FMN_1_ligand
   50    52     1     0     0
SMALL
NO_CHARGES


@<TRIPOS>ATOM
     1 N1          33.0210    62.8200    89.9190 N.2          1 FMN200   0.0000
     2 C2          31.9950    62.9440    88.9880 C.2          1 FMN200   0.0000
     3 O2          32.1690    63.6240    87.9620 O.2          1 FMN200   0.0000
     4 N3          30.7860    62.2990    89.2170 N.pl3        1 FMN200   0.0000
     5 C4          30.6200    61.5490    90.3820 C.2          1 FMN200   0.0000
     6 O4          29.5280    60.9870    90.5550 O.2          1 FMN200   0.0000
     7 C4A         31.6780    61.4340    91.3290 C.2          1 FMN200   0.0000
     8 N5          31.5590    60.6920    92.4950 N.2          1 FMN200   0.0000
     9 C5A         32.6860    60.3860    93.2600 C.ar         1 FMN200   0.0000
    10 C6          32.5990    59.4360    94.2840 C.ar         1 FMN200   0.0000
    11 C7          33.7040    59.0950    95.0710 C.ar         1 FMN200   0.0000
    12 C7M         33.5940    58.0700    96.1600 C.3          1 FMN200   0.0000
    13 C8          34.8990    59.7270    94.8180 C.ar         1 FMN200   0.0000
    14 C8M         36.1010    59.3950    95.6230 C.3          1 FMN200   0.0000
    15 C9          34.9980    60.6820    93.7950 C.ar         1 FMN200   0.0000
    16 C9A         33.9050    61.0260    93.0010 C.ar         1 FMN200   0.0000
    17 N10         33.9630    61.9970    91.9680 N.pl3        1 FMN200   0.0000
    18 C10         32.8900    62.0890    91.0730 C.2          1 FMN200   0.0000
    19 C1'         35.2550    62.6090    91.5340 C.3          1 FMN200   0.0000
    20 C2'         35.8260    63.6320    92.5060 C.3          1 FMN200   0.0000
    21 O2'         35.3680    64.9130    92.1420 O.3          1 FMN200   0.0000
    22 C3'         37.3700    63.6190    92.4440 C.3          1 FMN200   0.0000
    23 O3'         37.9190    62.4460    93.0410 O.3          1 FMN200   0.0000
    24 C4'         37.9560    64.8420    93.1350 C.3          1 FMN200   0.0000
    25 O4'         37.5360    66.0080    92.4480 O.3          1 FMN200   0.0000
    26 C5'         39.4860    64.7650    93.2370 C.3          1 FMN200   0.0000
    27 O5'         40.0290    64.8890    91.9490 O.3          1 FMN200   0.0000
    28 P           40.9510    63.7800    91.3450 P.3          1 FMN200   0.0000
    29 O1P         41.0360    64.1610    89.8830 O.co2        1 FMN200   0.0000
    30 O2P         40.2910    62.4260    91.3840 O.co2        1 FMN200  -1.0000
    31 O3P         42.2930    63.8390    92.0530 O.co2        1 FMN200  -1.0000
    32 H1          30.0417    62.3715    88.5532 H            1 FMN200   0.0000
    33 H2          31.7219    58.9882    94.4580 H            1 FMN200   0.0000
    34 H7M1        34.4816    57.9631    96.6080 H            1 FMN200   0.0000
    35 H7M2        32.9155    58.3684    96.8313 H            1 FMN200   0.0000
    36 H7M3        33.3115    57.1950    95.7669 H            1 FMN200   0.0000
    37 H8M1        36.8755    59.9432    95.3073 H            1 FMN200   0.0000
    38 H8M2        35.9224    59.5942    96.5865 H            1 FMN200   0.0000
    39 H8M3        36.3150    58.4239    95.5175 H            1 FMN200   0.0000
    40 H9          35.8775    61.1286    93.6307 H            1 FMN200   0.0000
    41 H1'1        35.1064    63.0621    90.6550 H            1 FMN200   0.0000
    42 H1'2        35.9259    61.8760    91.4220 H            1 FMN200   0.0000
    43 H2'         35.5246    63.4182    93.4352 H            1 FMN200   0.0000
    44 H13         36.0504    65.5968    92.4004 H            1 FMN200   0.0000
    45 H3'         37.6454    63.6399    91.4829 H            1 FMN200   0.0000
    46 H15         38.7816    62.2154    92.5908 H            1 FMN200   0.0000
    47 H4'         37.5858    64.8798    94.0632 H            1 FMN200   0.0000
    48 H17         37.8562    65.9707    91.5014 H            1 FMN200   0.0000
    49 H5'1        39.7532    63.8859    93.6317 H            1 FMN200   0.0000
    50 H5'2        39.8224    65.5069    93.8170 H            1 FMN200   0.0000
@<TRIPOS>BOND
     1    1    2       1
     2    1   18       2
     3    2    3       2
     4    2    4       1
     5    4    5       1
     6    5    6       2
     7    5    7       1
     8    7    8       2
     9    7   18       1
    10    8    9       1
    11    9   10      ar
    12    9   16      ar
    13   10   11      ar
    14   11   12       1
    15   11   13      ar
    16   13   14       1
    17   13   15      ar
    18   15   16      ar
    19   16   17       1
    20   17   18       1
    21   17   19       1
    22   19   20       1
    23   20   21       1
    24   20   22       1
    25   22   23       1
    26   22   24       1
    27   24   25       1
    28   24   26       1
    29   26   27       1
    30   27   28       1
    31   28   29      ar
    32   28   30      ar
    33   28   31      ar
    34    4   32       1
    35   10   33       1
    36   12   34       1
    37   12   35       1
    38   12   36       1
    39   14   37       1
    40   14   38       1
    41   14   39       1
    42   15   40       1
    43   19   41       1
    44   19   42       1
    45   20   43       1
    46   21   44       1
    47   22   45       1
    48   23   46       1
    49   24   47       1
    50   25   48       1
    51   26   49       1
    52   26   50       1
@<TRIPOS>SUBSTRUCTURE
     1 FMN200      1 GROUP             4 A     FMN     0 **** FMN A 200
