@<TRIPOS>MOLECULE
1xsc_ATP_1_ligand
   43    45     1     0     0
SMALL
NO_CHARGES


@<TRIPOS>ATOM
     1 PG          -1.7600   -10.4840   -30.8560 P.3          1 ATP154   0.0000
     2 O1G         -3.2420   -10.5630   -30.8700 O.co2        1 ATP154   0.0000
     3 O2G         -1.3890   -11.9110   -31.0370 O.co2        1 ATP154  -1.0000
     4 O3G         -1.0490    -9.6630   -31.8690 O.co2        1 ATP154  -1.0000
     5 PB           0.0410    -9.6170   -29.0160 P.3          1 ATP154   0.0000
     6 O1B         -0.0590    -8.1730   -28.6810 O.co2        1 ATP154   0.0000
     7 O2B          1.0680   -10.0850   -29.9790 O.co2        1 ATP154  -1.0000
     8 O3B         -1.2960   -10.0080   -29.5290 O.3          1 ATP154   0.0000
     9 PA           0.5960   -11.6160   -27.2250 P.3          1 ATP154   0.0000
    10 O1A          0.4950   -12.7090   -28.2250 O.co2        1 ATP154   0.0000
    11 O2A          1.7630   -11.5950   -26.3060 O.co2        1 ATP154  -1.0000
    12 O3A          0.3600   -10.2290   -27.7000 O.3          1 ATP154   0.0000
    13 O5'         -0.7430   -11.7650   -26.3740 O.3          1 ATP154   0.0000
    14 C5'         -0.7530   -11.4990   -24.9750 C.3          1 ATP154   0.0000
    15 C4'         -1.1980   -12.7250   -24.2160 C.3          1 ATP154   0.0000
    16 O4'         -1.4500   -12.3480   -22.8340 O.3          1 ATP154   0.0000
    17 C3'         -2.4960   -13.3560   -24.7090 C.3          1 ATP154   0.0000
    18 O3'         -2.4920   -14.7650   -24.5270 O.3          1 ATP154   0.0000
    19 C2'         -3.5540   -12.6700   -23.8540 C.3          1 ATP154   0.0000
    20 O2'         -4.6800   -13.5060   -23.6620 O.3          1 ATP154   0.0000
    21 C1'         -2.8170   -12.5360   -22.5270 C.3          1 ATP154   0.0000
    22 N9          -3.2570   -11.4110   -21.7050 N.pl3        1 ATP154   0.0000
    23 C8          -4.0400   -10.3440   -22.0680 C.2          1 ATP154   0.0000
    24 N7          -4.2510    -9.4900   -21.0960 N.2          1 ATP154   0.0000
    25 C5          -3.5630   -10.0330   -20.0190 C.ar         1 ATP154   0.0000
    26 C6          -3.3890    -9.6050   -18.6940 C.ar         1 ATP154   0.0000
    27 N6          -3.9170    -8.4830   -18.2030 N.pl3        1 ATP154   0.0000
    28 N1          -2.6440   -10.3820   -17.8770 N.ar         1 ATP154   0.0000
    29 C2          -2.1110   -11.5080   -18.3710 C.ar         1 ATP154   0.0000
    30 N3          -2.2000   -12.0120   -19.5970 N.ar         1 ATP154   0.0000
    31 C4          -2.9490   -11.2180   -20.3810 C.ar         1 ATP154   0.0000
    32 H5'1        -1.3837   -10.7463   -24.7861 H            1 ATP154   0.0000
    33 H5'2         0.1680   -11.2441   -24.6804 H            1 ATP154   0.0000
    34 H4'         -0.4695   -13.4096   -24.2420 H            1 ATP154   0.0000
    35 H3'         -2.6393   -13.1355   -25.6738 H            1 ATP154   0.0000
    36 H5          -3.3545   -15.1465   -24.8594 H            1 ATP154   0.0000
    37 H2'         -3.8124   -11.7789   -24.2270 H            1 ATP154   0.0000
    38 H7          -5.4944   -13.0582   -24.0310 H            1 ATP154   0.0000
    39 H1'         -2.9225   -13.3833   -22.0065 H            1 ATP154   0.0000
    40 H9          -4.4146   -10.2287   -22.9880 H            1 ATP154   0.0000
    41 H10         -3.7570    -8.2310   -17.2486 H            1 ATP154   0.0000
    42 H11         -4.4729    -7.8937   -18.7893 H            1 ATP154   0.0000
    43 H12         -1.5691   -12.0454   -17.7248 H            1 ATP154   0.0000
@<TRIPOS>BOND
     1    1    2      ar
     2    1    3      ar
     3    1    4      ar
     4    1    8       1
     5    5    6      ar
     6    5    7      ar
     7    5    8       1
     8    5   12       1
     9    9   10      ar
    10    9   11      ar
    11    9   12       1
    12    9   13       1
    13   13   14       1
    14   14   15       1
    15   15   16       1
    16   15   17       1
    17   16   21       1
    18   17   18       1
    19   17   19       1
    20   19   20       1
    21   19   21       1
    22   21   22       1
    23   22   23       1
    24   22   31       1
    25   23   24       2
    26   24   25       1
    27   25   26      ar
    28   25   31      ar
    29   26   27       1
    30   26   28      ar
    31   28   29      ar
    32   29   30      ar
    33   30   31      ar
    34   29   43       1
    35   27   42       1
    36   27   41       1
    37   23   40       1
    38   14   32       1
    39   14   33       1
    40   15   34       1
    41   17   35       1
    42   18   36       1
    43   19   37       1
    44   20   38       1
    45   21   39       1
@<TRIPOS>SUBSTRUCTURE
     1 ATP154      1 GROUP             4 A     ATP     0 **** ATP A 154
