@<TRIPOS>MOLECULE
2r3a_SAM_1_ligand
   50    52     1     0     0
SMALL
NO_CHARGES


@<TRIPOS>ATOM
     1 N           33.0830    38.6110    50.1000 N.4          1 SAM304   1.0000
     2 CA          33.2040    37.1500    50.3410 C.3          1 SAM304   0.0000
     3 C           34.6680    36.7140    50.5560 C.2          1 SAM304   0.0000
     4 O           35.5710    37.5150    50.7140 O.co2        1 SAM304   0.0000
     5 OXT         34.9970    35.5490    50.5780 O.co2        1 SAM304  -1.0000
     6 CB          32.4780    36.3560    49.2630 C.3          1 SAM304   0.0000
     7 CG          30.9890    36.1380    49.5290 C.3          1 SAM304   0.0000
     8 SD          30.6090    35.3440    51.1270 S.3          1 SAM304   1.0000
     9 CE          29.4180    34.1730    50.3960 C.3          1 SAM304   0.0000
    10 C5'         29.5060    36.5360    51.9560 C.3          1 SAM304   0.0000
    11 C4'         30.2660    37.5400    52.8440 C.3          1 SAM304   0.0000
    12 O4'         30.8550    38.5470    52.0260 O.3          1 SAM304   0.0000
    13 C3'         29.4340    38.2720    53.8640 C.3          1 SAM304   0.0000
    14 O3'         29.3830    37.6510    55.1240 O.3          1 SAM304   0.0000
    15 C2'         30.1530    39.6000    53.9730 C.3          1 SAM304   0.0000
    16 O2'         31.3190    39.4570    54.7450 O.3          1 SAM304   0.0000
    17 C1'         30.6710    39.8370    52.5680 C.3          1 SAM304   0.0000
    18 N9          29.6620    40.5600    51.7560 N.pl3        1 SAM304   0.0000
    19 C8          28.9960    40.0890    50.6500 C.2          1 SAM304   0.0000
    20 N7          28.1810    41.0440    50.1970 N.2          1 SAM304   0.0000
    21 C5          28.3110    42.1250    50.9740 C.ar         1 SAM304   0.0000
    22 C6          27.6960    43.3860    50.9680 C.ar         1 SAM304   0.0000
    23 N6          26.7950    43.7430    50.0360 N.pl3        1 SAM304   0.0000
    24 N1          28.0710    44.2820    51.9590 N.ar         1 SAM304   0.0000
    25 C2          28.9900    43.9690    52.9310 C.ar         1 SAM304   0.0000
    26 N3          29.5990    42.7340    52.9190 N.ar         1 SAM304   0.0000
    27 C4          29.2420    41.8270    51.9710 C.ar         1 SAM304   0.0000
    28 H1          32.1208    38.8482    49.9664 H            1 SAM304   0.0000
    29 H2          33.4430    39.1098    50.8884 H            1 SAM304   0.0000
    30 HA          32.7251    36.9646    51.1991 H            1 SAM304   0.0000
    31 HB1         32.9159    35.4602    49.1870 H            1 SAM304   0.0000
    32 HB2         32.5717    36.8474    48.3971 H            1 SAM304   0.0000
    33 HG1         30.6234    35.5602    48.7993 H            1 SAM304   0.0000
    34 HG2         30.5350    37.0288    49.5079 H            1 SAM304   0.0000
    35 HE1         29.0432    33.5868    51.1143 H            1 SAM304   0.0000
    36 HE2         28.6757    34.6814    49.9595 H            1 SAM304   0.0000
    37 HE3         29.8818    33.6085    49.7132 H            1 SAM304   0.0000
    38 H5'1        28.8608    36.0292    52.5277 H            1 SAM304   0.0000
    39 H5'2        29.0035    37.0450    51.2571 H            1 SAM304   0.0000
    40 H4'         30.9964    37.0517    53.3216 H            1 SAM304   0.0000
    41 H3'         28.5079    38.4119    53.5136 H            1 SAM304   0.0000
    42 H15         28.8147    38.1953    55.7411 H            1 SAM304   0.0000
    43 H2'         29.5602    40.3370    54.2978 H            1 SAM304   0.0000
    44 H17         31.1853    38.7308    55.4194 H            1 SAM304   0.0000
    45 H1'         31.5354    40.3394    52.5889 H            1 SAM304   0.0000
    46 H19         29.1043    39.1790    50.2498 H            1 SAM304   0.0000
    47 H20         26.3783    44.6516    50.0655 H            1 SAM304   0.0000
    48 H21         26.5416    43.0999    49.3133 H            1 SAM304   0.0000
    49 H22         29.2154    44.6340    53.6430 H            1 SAM304   0.0000
    50 H23         33.6038    38.8583    49.2829 H            1 SAM304   0.0000
@<TRIPOS>BOND
     1    1    2       1
     2    2    3       1
     3    2    6       1
     4    3    4      ar
     5    3    5      ar
     6    6    7       1
     7    7    8       1
     8    8    9       1
     9    8   10       1
    10   10   11       1
    11   11   12       1
    12   11   13       1
    13   12   17       1
    14   13   14       1
    15   13   15       1
    16   15   16       1
    17   15   17       1
    18   17   18       1
    19   18   19       1
    20   18   27       1
    21   19   20       2
    22   20   21       1
    23   21   22      ar
    24   21   27      ar
    25   22   23       1
    26   22   24      ar
    27   24   25      ar
    28   25   26      ar
    29   26   27      ar
    30    1   28       1
    31    1   29       1
    32    2   30       1
    33    1   50       1
    34    6   31       1
    35    6   32       1
    36    7   33       1
    37    7   34       1
    38    9   35       1
    39    9   36       1
    40    9   37       1
    41   10   38       1
    42   10   39       1
    43   11   40       1
    44   13   41       1
    45   14   42       1
    46   15   43       1
    47   16   44       1
    48   17   45       1
    49   19   46       1
    50   23   47       1
    51   23   48       1
    52   25   49       1
@<TRIPOS>SUBSTRUCTURE
     1 SAM304      1 GROUP             4 A     SAM     0 **** SAM A 304
