@<TRIPOS>MOLECULE
3m7o_BEN_1_ligand
   18    18     1     0     0
SMALL
NO_CHARGES


@<TRIPOS>ATOM
     1 C1          -3.6570    47.7350     8.6270 C.ar         1 BEN163   0.0000
     2 C2          -2.9690    48.0790     7.4670 C.ar         1 BEN163   0.0000
     3 C3          -3.3980    47.6840     6.1840 C.ar         1 BEN163   0.0000
     4 C4          -4.5370    46.8840     6.0990 C.ar         1 BEN163   0.0000
     5 C5          -5.2280    46.5300     7.2590 C.ar         1 BEN163   0.0000
     6 C6          -4.8060    46.9400     8.5250 C.ar         1 BEN163   0.0000
     7 C           -3.1990    48.1520     9.9090 C.cat        1 BEN163   0.0000
     8 N1          -3.2360    47.3370    10.9580 N.pl3        1 BEN163   1.0000
     9 N2          -2.7280    49.3680    10.1180 N.pl3        1 BEN163   0.0000
    10 H1          -2.1372    48.6283     7.5471 H            1 BEN163   0.0000
    11 H2          -2.9027    47.9676     5.3629 H            1 BEN163   0.0000
    12 H3          -4.8585    46.5642     5.2077 H            1 BEN163   0.0000
    13 H4          -6.0499    45.9658     7.1808 H            1 BEN163   0.0000
    14 H5          -5.3141    46.6714     9.3433 H            1 BEN163   0.0000
    15 H6          -2.9085    47.6530    11.8485 H            1 BEN163   0.0000
    16 H7          -3.5913    46.4077    10.8569 H            1 BEN163   0.0000
    17 H8          -2.4134    49.6325    11.0296 H            1 BEN163   0.0000
    18 H9          -2.6860    50.0243     9.3646 H            1 BEN163   0.0000
@<TRIPOS>BOND
     1    1    2      ar
     2    1    6      ar
     3    1    7       1
     4    2    3      ar
     5    3    4      ar
     6    4    5      ar
     7    5    6      ar
     8    7    8      ar
     9    7    9      ar
    10    2   10       1
    11    3   11       1
    12    4   12       1
    13    5   13       1
    14    6   14       1
    15    8   15       1
    16    8   16       1
    17    9   17       1
    18    9   18       1
@<TRIPOS>SUBSTRUCTURE
     1 BEN163      1 GROUP             4 A     BEN     0 **** BEN A 163
