@<TRIPOS>MOLECULE
3qmn_COA_12_ligand
   80    82     1     0     0
SMALL
NO_CHARGES


@<TRIPOS>ATOM
     1 N1A          5.4380    47.4120    45.6490 N.ar         1 COA1008   0.0000
     2 C2A          5.0280    47.5060    44.3710 C.ar         1 COA1008   0.0000
     3 N3A          5.1360    46.5100    43.5200 N.ar         1 COA1008   0.0000
     4 C4A          5.6960    45.3460    43.9270 C.ar         1 COA1008   0.0000
     5 C5A          6.1420    45.2150    45.2340 C.ar         1 COA1008   0.0000
     6 C6A          6.0120    46.2940    46.0970 C.ar         1 COA1008   0.0000
     7 N6A          6.4200    46.2360    47.3880 N.pl3        1 COA1008   0.0000
     8 N7A          6.6330    43.9640    45.3710 N.2          1 COA1008   0.0000
     9 C8A          6.5200    43.3500    44.1690 C.2          1 COA1008   0.0000
    10 N9A          5.9410    44.2100    43.3030 N.pl3        1 COA1008   0.0000
    11 C1B          5.6810    43.9510    41.8770 C.3          1 COA1008   0.0000
    12 C2B          6.9870    43.5440    41.2190 C.3          1 COA1008   0.0000
    13 O2B          7.1600    44.2160    39.9750 O.3          1 COA1008   0.0000
    14 C3B          6.8400    42.0410    40.9850 C.3          1 COA1008   0.0000
    15 O3B          7.5070    41.4900    39.8600 O.3          1 COA1008   0.0000
    16 P3B          9.1160    41.4740    39.6930 P.3          1 COA1008   0.0000
    17 O7A          9.5380    41.2400    41.1300 O.co2        1 COA1008   0.0000
    18 O8A          9.4310    40.4370    38.6770 O.co2        1 COA1008  -1.0000
    19 O9A          9.3640    42.8490    39.1290 O.co2        1 COA1008  -1.0000
    20 C4B          5.3540    41.9900    40.7270 C.3          1 COA1008   0.0000
    21 O4B          4.7830    42.8750    41.6620 O.3          1 COA1008   0.0000
    22 C5B          4.7250    40.6290    40.9150 C.3          1 COA1008   0.0000
    23 O5B          3.3570    40.8880    40.6150 O.3          1 COA1008   0.0000
    24 P1A          2.2540    39.7410    40.6930 P.3          1 COA1008   0.0000
    25 O1A          2.7800    38.5970    39.9520 O.co2        1 COA1008   0.0000
    26 O2A          0.8880    40.3730    40.4630 O.co2        1 COA1008  -1.0000
    27 O3A          2.3870    39.6390    42.2490 O.3          1 COA1008   0.0000
    28 P2A          2.4740    38.3500    43.1660 P.3          1 COA1008   0.0000
    29 O4A          1.0910    37.7730    43.0690 O.co2        1 COA1008   0.0000
    30 O5A          3.7900    37.7150    42.8390 O.co2        1 COA1008  -1.0000
    31 O6A          2.6150    39.2430    44.4830 O.3          1 COA1008   0.0000
    32 CBP          1.9890    41.1300    45.9150 C.3          1 COA1008   0.0000
    33 CCP          1.5830    40.1540    44.8240 C.3          1 COA1008   0.0000
    34 CDP          2.9680    42.1470    45.3510 C.3          1 COA1008   0.0000
    35 CEP          0.7230    41.8570    46.3460 C.3          1 COA1008   0.0000
    36 CAP          2.6520    40.4200    47.1020 C.3          1 COA1008   0.0000
    37 OAP          2.7690    41.3640    48.1790 O.3          1 COA1008   0.0000
    38 C9P          1.8900    39.2190    47.6150 C.2          1 COA1008   0.0000
    39 O9P          1.6250    38.1660    46.8560 O.2          1 COA1008   0.0000
    40 N8P          1.4990    39.2040    48.8910 N.am         1 COA1008   0.0000
    41 C7P          0.7740    38.1420    49.5930 C.3          1 COA1008   0.0000
    42 C6P         -0.6380    38.0220    49.0220 C.3          1 COA1008   0.0000
    43 C5P         -1.2600    36.7380    49.5340 C.2          1 COA1008   0.0000
    44 O5P         -1.7730    36.7110    50.6360 O.2          1 COA1008   0.0000
    45 N4P         -1.2090    35.6680    48.7460 N.am         1 COA1008   0.0000
    46 C3P         -1.7220    34.3330    49.0510 C.3          1 COA1008   0.0000
    47 C2P         -2.9310    34.1060    48.1620 C.3          1 COA1008   0.0000
    48 S1P         -4.4200    34.7300    48.9820 S.3          1 COA1008   0.0000
    49 H2A          4.6260    48.3660    44.0567 H            1 COA1008   0.0000
    50 H6A1         6.8519    45.4052    47.7390 H            1 COA1008   0.0000
    51 H6A2         6.2891    47.0240    47.9896 H            1 COA1008   0.0000
    52 H8A          6.8151    42.4181    43.9584 H            1 COA1008   0.0000
    53 H1B          5.3269    44.7789    41.4421 H            1 COA1008   0.0000
    54 H2B          7.7585    43.7298    41.8276 H            1 COA1008   0.0000
    55 H7           8.0250    43.9329    39.5607 H            1 COA1008   0.0000
    56 H3B          7.0704    41.5320    41.8143 H            1 COA1008   0.0000
    57 H4B          5.1660    42.3180    39.8012 H            1 COA1008   0.0000
    58 H5B1         4.8354    40.3048    41.8545 H            1 COA1008   0.0000
    59 H5B2         5.1145    39.9588    40.2832 H            1 COA1008   0.0000
    60 HCP1         0.7903    39.6333    45.1411 H            1 COA1008   0.0000
    61 HCP2         1.3347    40.6746    44.0071 H            1 COA1008   0.0000
    62 HDP1         3.2339    42.7884    46.0707 H            1 COA1008   0.0000
    63 HDP2         3.7801    41.6740    45.0093 H            1 COA1008   0.0000
    64 HDP3         2.5340    42.6476    44.6020 H            1 COA1008   0.0000
    65 HEP1         0.9446    42.5133    47.0672 H            1 COA1008   0.0000
    66 HEP2         0.3337    42.3414    45.5626 H            1 COA1008   0.0000
    67 HEP3         0.0590    41.1938    46.6914 H            1 COA1008   0.0000
    68 HAP          3.5687    40.1271    46.8302 H            1 COA1008   0.0000
    69 H21          3.6447    41.8419    48.1097 H            1 COA1008   0.0000
    70 H8P          1.7280    40.0134    49.4318 H            1 COA1008   0.0000
    71 H7P1         0.7216    38.3624    50.5670 H            1 COA1008   0.0000
    72 H7P2         1.2564    37.2743    49.4731 H            1 COA1008   0.0000
    73 H6P1        -0.5967    38.0012    48.0231 H            1 COA1008   0.0000
    74 H6P2        -1.1880    38.8035    49.3167 H            1 COA1008   0.0000
    75 H4P         -0.7753    35.7887    47.8531 H            1 COA1008   0.0000
    76 H3P1        -1.9889    34.2796    50.0133 H            1 COA1008   0.0000
    77 H3P2        -1.0220    33.6447    48.8605 H            1 COA1008   0.0000
    78 H2P1        -3.0345    33.1271    47.9857 H            1 COA1008   0.0000
    79 H2P2        -2.8017    34.5889    47.2959 H            1 COA1008   0.0000
    80 H1P         -5.2135    34.5783    48.3927 H            1 COA1008   0.0000
@<TRIPOS>BOND
     1    1    2      ar
     2    1    6      ar
     3    2    3      ar
     4    3    4      ar
     5    4    5      ar
     6    4   10       1
     7    5    6      ar
     8    5    8       1
     9    6    7       1
    10    8    9       2
    11    9   10       1
    12   10   11       1
    13   11   12       1
    14   11   21       1
    15   12   13       1
    16   12   14       1
    17   14   15       1
    18   14   20       1
    19   15   16       1
    20   16   17      ar
    21   16   18      ar
    22   16   19      ar
    23   20   21       1
    24   20   22       1
    25   22   23       1
    26   23   24       1
    27   24   25      ar
    28   24   26      ar
    29   24   27       1
    30   27   28       1
    31   28   29      ar
    32   28   30      ar
    33   28   31       1
    34   31   33       1
    35   32   33       1
    36   32   34       1
    37   32   35       1
    38   32   36       1
    39   36   37       1
    40   36   38       1
    41   38   39       2
    42   38   40      am
    43   40   41       1
    44   41   42       1
    45   42   43       1
    46   43   44       2
    47   43   45      am
    48   45   46       1
    49   46   47       1
    50   47   48       1
    51    2   49       1
    52    7   50       1
    53    7   51       1
    54    9   52       1
    55   11   53       1
    56   12   54       1
    57   13   55       1
    58   14   56       1
    59   48   80       1
    60   47   79       1
    61   20   57       1
    62   22   58       1
    63   22   59       1
    64   47   78       1
    65   46   77       1
    66   33   60       1
    67   33   61       1
    68   34   62       1
    69   34   63       1
    70   34   64       1
    71   35   65       1
    72   35   66       1
    73   35   67       1
    74   36   68       1
    75   37   69       1
    76   40   70       1
    77   41   71       1
    78   41   72       1
    79   42   73       1
    80   42   74       1
    81   45   75       1
    82   46   76       1
@<TRIPOS>SUBSTRUCTURE
     1 COA1008     1 GROUP             4 L     COA     0 **** COA L1008
