@<TRIPOS>MOLECULE
1cbf_SAH_1_ligand
   46    48     1     0     0
SMALL
NO_CHARGES


@<TRIPOS>ATOM
     1 N          -13.8600    33.0770    81.0970 N.4          1 SAH300   1.0000
     2 CA         -12.8790    33.8070    80.2610 C.3          1 SAH300   0.0000
     3 CB         -11.4700    33.2480    80.6470 C.3          1 SAH300   0.0000
     4 CG         -10.9980    33.4920    82.1330 C.3          1 SAH300   0.0000
     5 SD          -9.4270    32.6580    82.4330 S.3          1 SAH300   0.0000
     6 C          -13.2270    33.7250    78.7730 C.2          1 SAH300   0.0000
     7 O          -14.2490    33.0090    78.3820 O.co2        1 SAH300   0.0000
     8 OXT        -12.4620    34.2740    77.9140 O.co2        1 SAH300  -1.0000
     9 C5'         -8.3000    34.0120    81.8520 C.3          1 SAH300   0.0000
    10 C4'         -7.6420    33.7170    80.5180 C.3          1 SAH300   0.0000
    11 O4'         -8.5440    33.9960    79.4280 O.3          1 SAH300   0.0000
    12 C3'         -6.3790    34.5070    80.1320 C.3          1 SAH300   0.0000
    13 O3'         -5.2000    33.9130    80.7030 O.3          1 SAH300   0.0000
    14 C2'         -6.3570    34.3430    78.6110 C.3          1 SAH300   0.0000
    15 O2'         -5.9670    33.0120    78.2320 O.3          1 SAH300   0.0000
    16 C1'         -7.8650    34.4610    78.2880 C.3          1 SAH300   0.0000
    17 N9          -8.2810    35.8080    78.1020 N.pl3        1 SAH300   0.0000
    18 C8          -9.2700    36.5080    78.7620 C.2          1 SAH300   0.0000
    19 N7          -9.5460    37.6470    78.1160 N.2          1 SAH300   0.0000
    20 C5          -8.7160    37.6590    77.0140 C.ar         1 SAH300   0.0000
    21 C6          -8.5270    38.5440    75.9800 C.ar         1 SAH300   0.0000
    22 N6          -9.2760    39.6480    75.8760 N.pl3        1 SAH300   0.0000
    23 N1          -7.5730    38.2890    75.0420 N.ar         1 SAH300   0.0000
    24 C2          -6.8620    37.1560    75.1670 C.ar         1 SAH300   0.0000
    25 N3          -6.9810    36.2140    76.1200 N.ar         1 SAH300   0.0000
    26 C4          -7.9050    36.5410    77.0110 C.ar         1 SAH300   0.0000
    27 H1         -14.0021    33.5727    81.9538 H            1 SAH300   0.0000
    28 H2         -14.7281    33.0047    80.6058 H            1 SAH300   0.0000
    29 HA         -12.9082    34.7702    80.5281 H            1 SAH300   0.0000
    30 HB1        -10.7979    33.6737    80.0411 H            1 SAH300   0.0000
    31 HB2        -11.4817    32.2604    80.4903 H            1 SAH300   0.0000
    32 HG1        -11.6878    33.1331    82.7618 H            1 SAH300   0.0000
    33 HG2        -10.8854    34.4737    82.2868 H            1 SAH300   0.0000
    34 H5'1        -7.5832    34.1435    82.5368 H            1 SAH300   0.0000
    35 H5'2        -8.8342    34.8527    81.7629 H            1 SAH300   0.0000
    36 H4'         -7.4176    32.7428    80.4923 H            1 SAH300   0.0000
    37 H3'         -6.4610    35.4694    80.3910 H            1 SAH300   0.0000
    38 H12         -5.0281    34.3126    81.6034 H            1 SAH300   0.0000
    39 H2'         -5.8109    35.0470    78.1569 H            1 SAH300   0.0000
    40 H14         -5.1371    33.0535    77.6756 H            1 SAH300   0.0000
    41 H1'         -8.0983    33.9070    77.4889 H            1 SAH300   0.0000
    42 H16         -9.7173    36.2068    79.6041 H            1 SAH300   0.0000
    43 H17         -9.1275    40.2834    75.1182 H            1 SAH300   0.0000
    44 H18         -9.9842    39.8376    76.5561 H            1 SAH300   0.0000
    45 H19         -6.1629    36.9940    74.4706 H            1 SAH300   0.0000
    46 H20        -13.5121    32.1608    81.2958 H            1 SAH300   0.0000
@<TRIPOS>BOND
     1    1    2       1
     2    2    3       1
     3    2    6       1
     4    3    4       1
     5    4    5       1
     6    5    9       1
     7    6    7      ar
     8    6    8      ar
     9    9   10       1
    10   10   11       1
    11   10   12       1
    12   11   16       1
    13   12   13       1
    14   12   14       1
    15   14   15       1
    16   14   16       1
    17   16   17       1
    18   17   18       1
    19   17   26       1
    20   18   19       2
    21   19   20       1
    22   20   21      ar
    23   20   26      ar
    24   21   22       1
    25   21   23      ar
    26   23   24      ar
    27   24   25      ar
    28   25   26      ar
    29    1   27       1
    30    1   28       1
    31    2   29       1
    32    3   30       1
    33    3   31       1
    34    4   32       1
    35    4   33       1
    36    1   46       1
    37    9   34       1
    38    9   35       1
    39   10   36       1
    40   12   37       1
    41   13   38       1
    42   14   39       1
    43   15   40       1
    44   16   41       1
    45   18   42       1
    46   22   43       1
    47   22   44       1
    48   24   45       1
@<TRIPOS>SUBSTRUCTURE
     1 SAH300      1 GROUP             4 A     SAH     0 **** SAH A 300
