@<TRIPOS>MOLECULE
1omo_NAD_2_ligand
   70    74     1     0     0
SMALL
NO_CHARGES


@<TRIPOS>ATOM
     1 PA          25.5770    19.4630    12.6180 P.3          1 NAD401   0.0000
     2 O1A         25.6590    18.0240    12.2580 O.co2        1 NAD401   0.0000
     3 O2A         24.4670    19.9270    13.5730 O.co2        1 NAD401  -1.0000
     4 O5B         25.7740    20.3560    11.2720 O.3          1 NAD401   0.0000
     5 C5B         26.7680    20.1200    10.1950 C.3          1 NAD401   0.0000
     6 C4B         26.0270    20.4720     8.8820 C.3          1 NAD401   0.0000
     7 O4B         26.9740    20.2430     7.7310 O.3          1 NAD401   0.0000
     8 C3B         24.7670    19.5560     8.5360 C.3          1 NAD401   0.0000
     9 O3B         23.5480    20.3830     8.4940 O.3          1 NAD401   0.0000
    10 C2B         25.0880    18.8490     7.1970 C.3          1 NAD401   0.0000
    11 O2B         24.0380    18.5420     6.3270 O.3          1 NAD401   0.0000
    12 C1B         26.1950    19.7800     6.6010 C.3          1 NAD401   0.0000
    13 N9A         27.1710    19.0660     5.7730 N.pl3        1 NAD401   0.0000
    14 C8A         27.7640    17.8100     5.9080 C.2          1 NAD401   0.0000
    15 N7A         28.6340    17.5180     4.9370 N.2          1 NAD401   0.0000
    16 C5A         28.6790    18.5630     4.1260 C.ar         1 NAD401   0.0000
    17 C6A         29.4270    18.7910     2.9230 C.ar         1 NAD401   0.0000
    18 N6A         30.3060    17.8890     2.4720 N.pl3        1 NAD401   0.0000
    19 N1A         29.1950    20.0410     2.3130 N.ar         1 NAD401   0.0000
    20 C2A         28.3090    20.9880     2.7480 C.ar         1 NAD401   0.0000
    21 N3A         27.5480    20.8020     3.9230 N.ar         1 NAD401   0.0000
    22 C4A         27.7480    19.5490     4.5720 C.ar         1 NAD401   0.0000
    23 O3          26.9080    19.9900    13.2900 O.3          1 NAD401   0.0000
    24 PN          27.7070    20.4950    14.6480 P.3          1 NAD401   0.0000
    25 O1N         26.9780    21.6060    15.2440 O.co2        1 NAD401   0.0000
    26 O2N         28.1380    19.2730    15.3530 O.co2        1 NAD401  -1.0000
    27 O5D         28.9340    21.1690    13.7590 O.3          1 NAD401   0.0000
    28 C5D         29.6280    20.3040    12.5890 C.3          1 NAD401   0.0000
    29 C4D         31.1130    20.4270    12.6280 C.3          1 NAD401   0.0000
    30 O4D         31.6080    21.2560    13.7930 O.3          1 NAD401   0.0000
    31 C3D         31.8730    19.0480    12.7980 C.3          1 NAD401   0.0000
    32 O3D         32.9390    18.9200    11.8510 O.3          1 NAD401   0.0000
    33 C2D         32.4220    19.1150    14.2210 C.3          1 NAD401   0.0000
    34 O2D         33.4360    18.1800    14.4840 O.3          1 NAD401   0.0000
    35 C1D         32.8330    20.6370    14.2700 C.3          1 NAD401   0.0000
    36 N1N         33.0570    21.3180    15.4970 N.ar         1 NAD401   1.0000
    37 C2N         34.3100    22.0640    15.5670 C.ar         1 NAD401   0.0000
    38 C3N         34.4180    22.9130    16.7280 C.ar         1 NAD401   0.0000
    39 C7N         35.8380    23.7380    16.8050 C.2          1 NAD401   0.0000
    40 O7N         36.0040    24.5270    17.7770 O.2          1 NAD401   0.0000
    41 N7N         36.7710    23.5330    15.8190 N.am         1 NAD401   0.0000
    42 C4N         33.4460    23.0880    17.7420 C.ar         1 NAD401   0.0000
    43 C5N         32.2500    22.2900    17.5380 C.ar         1 NAD401   0.0000
    44 C6N         32.0620    21.4330    16.4420 C.ar         1 NAD401   0.0000
    45 H5B1        27.0590    19.1633    10.1887 H            1 NAD401   0.0000
    46 H5B2        27.5658    20.7103    10.3175 H            1 NAD401   0.0000
    47 H4B         25.7484    21.4322     8.9012 H            1 NAD401   0.0000
    48 H3B         24.6641    18.8641     9.2506 H            1 NAD401   0.0000
    49 H5          22.7608    19.8057     8.2770 H            1 NAD401   0.0000
    50 H2B         25.5331    17.9837     7.4277 H            1 NAD401   0.0000
    51 H7          23.5685    19.3839     6.0610 H            1 NAD401   0.0000
    52 H1B         25.7914    20.5471     6.1024 H            1 NAD401   0.0000
    53 H8A         27.5569    17.1863     6.6617 H            1 NAD401   0.0000
    54 H6A1        30.8177    18.0664     1.6314 H            1 NAD401   0.0000
    55 H6A2        30.4513    17.0373     2.9755 H            1 NAD401   0.0000
    56 H2A         28.1976    21.8312     2.2220 H            1 NAD401   0.0000
    57 H5D1        29.2978    20.6308    11.7035 H            1 NAD401   0.0000
    58 H5D2        29.3782    19.3425    12.7037 H            1 NAD401   0.0000
    59 H4D         31.4193    20.8567    11.7786 H            1 NAD401   0.0000
    60 H3D         31.2334    18.2847    12.7073 H            1 NAD401   0.0000
    61 H17         33.5949    19.6628    11.9850 H            1 NAD401   0.0000
    62 H2D         31.6705    18.9638    14.8632 H            1 NAD401   0.0000
    63 H19         33.1497    17.5788    15.2300 H            1 NAD401   0.0000
    64 H1D         33.5827    20.8147    13.6325 H            1 NAD401   0.0000
    65 H2N         35.0273    21.9929    14.8739 H            1 NAD401   0.0000
    66 H7N1        37.6420    24.0237    15.8450 H            1 NAD401   0.0000
    67 H7N2        36.5797    22.8930    15.0748 H            1 NAD401   0.0000
    68 H4N         33.5707    23.7010    18.5222 H            1 NAD401   0.0000
    69 H5N         31.5186    22.3546    18.2169 H            1 NAD401   0.0000
    70 H6N         31.2140    20.9113    16.3485 H            1 NAD401   0.0000
@<TRIPOS>BOND
     1    1    2      ar
     2    1    3      ar
     3    1    4       1
     4    1   23       1
     5    4    5       1
     6    5    6       1
     7    6    7       1
     8    6    8       1
     9    7   12       1
    10    8    9       1
    11    8   10       1
    12   10   11       1
    13   10   12       1
    14   12   13       1
    15   13   14       1
    16   13   22       1
    17   14   15       2
    18   15   16       1
    19   16   17      ar
    20   16   22      ar
    21   17   18       1
    22   17   19      ar
    23   19   20      ar
    24   20   21      ar
    25   21   22      ar
    26   23   24       1
    27   24   25      ar
    28   24   26      ar
    29   24   27       1
    30   27   28       1
    31   28   29       1
    32   29   30       1
    33   29   31       1
    34   30   35       1
    35   31   32       1
    36   31   33       1
    37   33   34       1
    38   33   35       1
    39   35   36       1
    40   36   37      ar
    41   36   44      ar
    42   37   38      ar
    43   38   39       1
    44   38   42      ar
    45   39   40       2
    46   39   41      am
    47   42   43      ar
    48   43   44      ar
    49   44   70       1
    50    5   45       1
    51    5   46       1
    52    6   47       1
    53    8   48       1
    54    9   49       1
    55   10   50       1
    56   11   51       1
    57   12   52       1
    58   14   53       1
    59   18   54       1
    60   18   55       1
    61   20   56       1
    62   43   69       1
    63   28   57       1
    64   28   58       1
    65   29   59       1
    66   31   60       1
    67   32   61       1
    68   33   62       1
    69   34   63       1
    70   35   64       1
    71   37   65       1
    72   41   66       1
    73   41   67       1
    74   42   68       1
@<TRIPOS>SUBSTRUCTURE
     1 NAD401      1 GROUP             4 B     NAD     0 **** NAD B 401
