@<TRIPOS>MOLECULE
4ehu_ANP_2_ligand
   44    46     1     0     0
SMALL
NO_CHARGES


@<TRIPOS>ATOM
     1 PG          21.1730    19.5910   -16.7530 P.3          1 ANP301   0.0000
     2 O1G         21.3130    18.2130   -17.3170 O.co2        1 ANP301   0.0000
     3 O2G         20.0080    19.8630   -15.8820 O.co2        1 ANP301  -1.0000
     4 O3G         21.3450    20.6480   -17.8110 O.co2        1 ANP301  -1.0000
     5 PB          23.6050    20.9950   -15.4810 P.3          1 ANP301   0.0000
     6 O1B         23.2390    22.1420   -16.3970 O.co2        1 ANP301   0.0000
     7 O2B         23.7420    21.2710   -14.0150 O.co2        1 ANP301  -1.0000
     8 N3B         22.5390    19.6210   -15.6680 N.3          1 ANP301   0.0000
     9 PA          26.2400    21.1670   -16.5920 P.3          1 ANP301   0.0000
    10 O1A         25.9730    21.6050   -18.0140 O.co2        1 ANP301   0.0000
    11 O2A         26.6250    22.1610   -15.5340 O.co2        1 ANP301  -1.0000
    12 O3A         24.9690    20.3580   -15.9940 O.3          1 ANP301   0.0000
    13 O5'         27.3520    20.0280   -16.6660 O.3          1 ANP301   0.0000
    14 C5'         27.5790    19.1610   -15.5520 C.3          1 ANP301   0.0000
    15 C4'         28.5040    18.0520   -15.9820 C.3          1 ANP301   0.0000
    16 O4'         29.7000    18.6060   -16.5300 O.3          1 ANP301   0.0000
    17 C3'         28.9390    17.1490   -14.8410 C.3          1 ANP301   0.0000
    18 O3'         27.9970    16.0670   -14.7330 O.3          1 ANP301   0.0000
    19 C2'         30.3300    16.7080   -15.2620 C.3          1 ANP301   0.0000
    20 O2'         30.2860    15.4420   -15.9210 O.3          1 ANP301   0.0000
    21 C1'         30.8030    17.7330   -16.2880 C.3          1 ANP301   0.0000
    22 N9          31.9190    18.5950   -15.8380 N.pl3        1 ANP301   0.0000
    23 C8          31.8600    19.5090   -14.8550 C.2          1 ANP301   0.0000
    24 N7          33.0550    20.1450   -14.7340 N.2          1 ANP301   0.0000
    25 C5          33.8770    19.6380   -15.6610 C.ar         1 ANP301   0.0000
    26 C6          35.2800    19.8510   -16.0780 C.ar         1 ANP301   0.0000
    27 N6          36.0490    20.7770   -15.4490 N.pl3        1 ANP301   0.0000
    28 N1          35.7580    19.1030   -17.0940 N.ar         1 ANP301   0.0000
    29 C2          35.0130    18.1840   -17.7430 C.ar         1 ANP301   0.0000
    30 N3          33.7370    17.9360   -17.3950 N.ar         1 ANP301   0.0000
    31 C4          33.1170    18.6160   -16.3970 C.ar         1 ANP301   0.0000
    32 H3B         22.1669    19.4400   -14.7576 H            1 ANP301   0.0000
    33 H5'1        26.7098    18.7737   -15.2447 H            1 ANP301   0.0000
    34 H5'2        27.9971    19.6767   -14.8042 H            1 ANP301   0.0000
    35 H4'         28.0495    17.4997   -16.6809 H            1 ANP301   0.0000
    36 H3'         28.9799    17.6634   -13.9844 H            1 ANP301   0.0000
    37 H6          28.2690    15.4616   -13.9850 H            1 ANP301   0.0000
    38 H2'         30.9478    16.6793   -14.4761 H            1 ANP301   0.0000
    39 H8          30.3885    14.7112   -15.2462 H            1 ANP301   0.0000
    40 H1'         31.0572    17.2682   -17.1361 H            1 ANP301   0.0000
    41 H10         31.0535    19.6945   -14.2936 H            1 ANP301   0.0000
    42 H11         36.9970    20.9172   -15.7348 H            1 ANP301   0.0000
    43 H12         35.6672    21.3187   -14.7001 H            1 ANP301   0.0000
    44 H13         35.4193    17.6745   -18.5015 H            1 ANP301   0.0000
@<TRIPOS>BOND
     1    1    2      ar
     2    1    3      ar
     3    1    4      ar
     4    1    8       1
     5    5    6      ar
     6    5    7      ar
     7    5    8       1
     8    5   12       1
     9    9   10      ar
    10    9   11      ar
    11    9   12       1
    12    9   13       1
    13   13   14       1
    14   14   15       1
    15   15   16       1
    16   15   17       1
    17   16   21       1
    18   17   18       1
    19   17   19       1
    20   19   20       1
    21   19   21       1
    22   21   22       1
    23   22   23       1
    24   22   31       1
    25   23   24       2
    26   24   25       1
    27   25   26      ar
    28   25   31      ar
    29   26   27       1
    30   26   28      ar
    31   28   29      ar
    32   29   30      ar
    33   30   31      ar
    34   29   44       1
    35   27   43       1
    36   27   42       1
    37    8   32       1
    38   23   41       1
    39   14   33       1
    40   14   34       1
    41   15   35       1
    42   17   36       1
    43   18   37       1
    44   19   38       1
    45   20   39       1
    46   21   40       1
@<TRIPOS>SUBSTRUCTURE
     1 ANP301      1 GROUP             4 B     ANP     0 **** ANP B 301
