@<TRIPOS>MOLECULE
1pf9_ADP_2_ligand
   39    41     1     0     0
SMALL
NO_CHARGES


@<TRIPOS>ATOM
     1 PB          43.9620   -83.6490   -18.2720 P.3          1 ADP701   0.0000
     2 O1B         43.1310   -84.0600   -19.4220 O.co2        1 ADP701   0.0000
     3 O2B         44.9280   -84.7090   -17.7150 O.co2        1 ADP701  -1.0000
     4 O3B         44.7310   -82.3620   -18.6780 O.co2        1 ADP701  -1.0000
     5 PA          41.6460   -82.7050   -17.2020 P.3          1 ADP701   0.0000
     6 O1A         41.3990   -81.8440   -16.0120 O.co2        1 ADP701   0.0000
     7 O2A         41.6440   -82.0130   -18.5790 O.co2        1 ADP701  -1.0000
     8 O3A         43.0250   -83.4430   -16.9870 O.3          1 ADP701   0.0000
     9 O5'         40.6840   -83.9780   -17.2280 O.3          1 ADP701   0.0000
    10 C5'         40.4090   -84.4260   -15.9330 C.3          1 ADP701   0.0000
    11 C4'         39.8850   -85.8420   -15.7280 C.3          1 ADP701   0.0000
    12 O4'         38.7130   -85.6870   -14.9780 O.3          1 ADP701   0.0000
    13 C3'         39.4950   -86.6510   -16.9230 C.3          1 ADP701   0.0000
    14 O3'         40.4000   -87.7000   -16.7900 O.3          1 ADP701   0.0000
    15 C2'         38.1070   -87.2000   -16.6480 C.3          1 ADP701   0.0000
    16 O2'         38.2060   -88.5860   -16.4310 O.3          1 ADP701   0.0000
    17 C1'         37.7670   -86.6460   -15.3000 C.3          1 ADP701   0.0000
    18 N9          36.4480   -86.0640   -15.2140 N.pl3        1 ADP701   0.0000
    19 C8          35.8160   -85.2380   -16.0820 C.2          1 ADP701   0.0000
    20 N7          34.5930   -84.9910   -15.5360 N.2          1 ADP701   0.0000
    21 C5          34.4440   -85.6500   -14.3420 C.ar         1 ADP701   0.0000
    22 C6          33.4150   -85.7640   -13.3620 C.ar         1 ADP701   0.0000
    23 N6          32.1640   -85.3520   -13.5710 N.pl3        1 ADP701   0.0000
    24 N1          33.6270   -86.5480   -12.2320 N.ar         1 ADP701   0.0000
    25 C2          34.8420   -87.2070   -12.0600 C.ar         1 ADP701   0.0000
    26 N3          35.8380   -87.0880   -13.0130 N.ar         1 ADP701   0.0000
    27 C4          35.6440   -86.3230   -14.1310 C.ar         1 ADP701   0.0000
    28 H5'1        39.7269   -83.8042   -15.5482 H            1 ADP701   0.0000
    29 H5'2        41.2594   -84.3516   -15.4121 H            1 ADP701   0.0000
    30 H4'         40.5496   -86.3592   -15.1887 H            1 ADP701   0.0000
    31 H3'         39.5713   -86.1572   -17.7892 H            1 ADP701   0.0000
    32 H5          40.0013   -88.5345   -17.1703 H            1 ADP701   0.0000
    33 H2'         37.4405   -86.9580   -17.3532 H            1 ADP701   0.0000
    34 H7          38.1073   -89.0676   -17.3018 H            1 ADP701   0.0000
    35 H1'         37.8287   -87.3864   -14.6306 H            1 ADP701   0.0000
    36 H9          36.1737   -84.8828   -16.9456 H            1 ADP701   0.0000
    37 H10         31.4772   -85.4539   -12.8513 H            1 ADP701   0.0000
    38 H11         31.9127   -84.9412   -14.4474 H            1 ADP701   0.0000
    39 H12         34.9948   -87.7674   -11.2460 H            1 ADP701   0.0000
@<TRIPOS>BOND
     1    1    2      ar
     2    1    3      ar
     3    1    4      ar
     4    1    8       1
     5    5    6      ar
     6    5    7      ar
     7    5    8       1
     8    5    9       1
     9    9   10       1
    10   10   11       1
    11   11   12       1
    12   11   13       1
    13   12   17       1
    14   13   14       1
    15   13   15       1
    16   15   16       1
    17   15   17       1
    18   17   18       1
    19   18   19       1
    20   18   27       1
    21   19   20       2
    22   20   21       1
    23   21   22      ar
    24   21   27      ar
    25   22   23       1
    26   22   24      ar
    27   24   25      ar
    28   25   26      ar
    29   26   27      ar
    30   25   39       1
    31   23   38       1
    32   23   37       1
    33   10   28       1
    34   10   29       1
    35   11   30       1
    36   13   31       1
    37   14   32       1
    38   15   33       1
    39   16   34       1
    40   17   35       1
    41   19   36       1
@<TRIPOS>SUBSTRUCTURE
     1 ADP701      1 GROUP             4 B     ADP     0 **** ADP B 701
