@<TRIPOS>MOLECULE
3tso_GNP_1_ligand
   45    47     1     0     0
SMALL
NO_CHARGES


@<TRIPOS>ATOM
     1 PG           0.8940    25.0920    15.2380 P.3          1 GNP201   0.0000
     2 O1G          0.2810    25.7710    14.0510 O.co2        1 GNP201   0.0000
     3 O2G          0.0970    25.3690    16.5390 O.co2        1 GNP201  -1.0000
     4 O3G          2.3890    25.4330    15.3530 O.co2        1 GNP201  -1.0000
     5 N3B          0.8170    23.4450    14.9430 N.3          1 GNP201   0.0000
     6 PB           1.2800    22.3190    15.9900 P.3          1 GNP201   0.0000
     7 O1B          2.6760    21.9700    15.6680 O.co2        1 GNP201   0.0000
     8 O2B          0.8920    22.6000    17.3880 O.co2        1 GNP201  -1.0000
     9 O3A          0.5300    20.9540    15.4060 O.3          1 GNP201   0.0000
    10 PA          -0.7210    20.2090    16.1270 P.3          1 GNP201   0.0000
    11 O1A         -0.2250    19.5230    17.3420 O.co2        1 GNP201   0.0000
    12 O2A         -1.8840    21.0620    16.2170 O.co2        1 GNP201  -1.0000
    13 O5'         -0.9270    19.0260    15.0680 O.3          1 GNP201   0.0000
    14 C5'         -1.3860    19.3290    13.7080 C.3          1 GNP201   0.0000
    15 C4'         -2.0470    18.0500    13.0710 C.3          1 GNP201   0.0000
    16 O4'         -1.2490    16.8620    13.1290 O.3          1 GNP201   0.0000
    17 C3'         -3.3450    17.8130    13.8950 C.3          1 GNP201   0.0000
    18 O3'         -4.5270    17.4290    13.1020 O.3          1 GNP201   0.0000
    19 C2'         -2.9130    16.7460    14.8730 C.3          1 GNP201   0.0000
    20 O2'         -4.0280    15.8880    15.3050 O.3          1 GNP201   0.0000
    21 C1'         -2.0620    15.9240    14.0070 C.3          1 GNP201   0.0000
    22 N9          -0.9850    15.2460    14.6960 N.pl3        1 GNP201   0.0000
    23 C8          -0.1220    15.7940    15.6050 C.2          1 GNP201   0.0000
    24 N7           0.7110    14.8370    15.9130 N.2          1 GNP201   0.0000
    25 C5           0.4230    13.6820    15.2460 C.2          1 GNP201   0.0000
    26 C6           0.9760    12.3610    15.2240 C.2          1 GNP201   0.0000
    27 O6           1.9610    12.0050    15.8930 O.2          1 GNP201   0.0000
    28 N1           0.4060    11.4040    14.3850 N.pl3        1 GNP201   0.0000
    29 C2          -0.7120    11.7540    13.5970 C.2          1 GNP201   0.0000
    30 N2          -1.2640    10.8140    12.7840 N.pl3        1 GNP201   0.0000
    31 N3          -1.1920    13.0420    13.6380 N.2          1 GNP201   0.0000
    32 C4          -0.6560    13.9820    14.4530 C.2          1 GNP201   0.0000
    33 H3B         -0.1435    23.2506    14.7440 H            1 GNP201   0.0000
    34 H5'1        -0.6062    19.6126    13.1499 H            1 GNP201   0.0000
    35 H5'2        -2.0584    20.0684    13.7416 H            1 GNP201   0.0000
    36 H4'         -2.2886    18.2408    12.1196 H            1 GNP201   0.0000
    37 H3'         -3.5580    18.6469    14.4041 H            1 GNP201   0.0000
    38 H6          -5.3091    17.2985    13.7113 H            1 GNP201   0.0000
    39 H2'         -2.4076    17.1264    15.6475 H            1 GNP201   0.0000
    40 H8          -4.4543    16.2806    16.1199 H            1 GNP201   0.0000
    41 H1'         -2.6041    15.2872    13.4587 H            1 GNP201   0.0000
    42 H10         -0.1279    16.7294    15.9586 H            1 GNP201   0.0000
    43 H11         -2.0562    11.0446    12.2190 H            1 GNP201   0.0000
    44 H12         -0.8777     9.8922    12.7512 H            1 GNP201   0.0000
    45 H13          0.7851    10.4796    14.3419 H            1 GNP201   0.0000
@<TRIPOS>BOND
     1    1    2      ar
     2    1    3      ar
     3    1    4      ar
     4    1    5       1
     5    5    6       1
     6    6    7      ar
     7    6    8      ar
     8    6    9       1
     9    9   10       1
    10   10   11      ar
    11   10   12      ar
    12   10   13       1
    13   13   14       1
    14   14   15       1
    15   15   16       1
    16   15   17       1
    17   16   21       1
    18   17   18       1
    19   17   19       1
    20   19   20       1
    21   19   21       1
    22   21   22       1
    23   22   23       1
    24   22   32       1
    25   23   24       2
    26   24   25       1
    27   25   26       1
    28   25   32       2
    29   26   27       2
    30   26   28       1
    31   28   29       1
    32   29   30       1
    33   29   31       2
    34   31   32       1
    35   28   45       1
    36   30   44       1
    37    5   33       1
    38   30   43       1
    39   23   42       1
    40   14   34       1
    41   14   35       1
    42   15   36       1
    43   17   37       1
    44   18   38       1
    45   19   39       1
    46   20   40       1
    47   21   41       1
@<TRIPOS>SUBSTRUCTURE
     1 GNP201      1 GROUP             4 A     GNP     0 **** GNP A 201
