@<TRIPOS>MOLECULE
4n49_MGT_1_ligand
   48    50     1     0     0
SMALL
NO_CHARGES


@<TRIPOS>ATOM
     1 PG          16.0550    22.2260    27.6870 P.3          1 MGT602   0.0000
     2 O1G         16.1560    23.6340    26.9480 O.co2        1 MGT602   0.0000
     3 O2G         17.3140    21.4670    27.5060 O.co2        1 MGT602  -1.0000
     4 O3B         15.9050    22.4340    29.2640 O.3          1 MGT602   0.0000
     5 PB          14.6090    22.3300    30.1260 P.3          1 MGT602   0.0000
     6 O1B         13.4440    22.8070    29.3210 O.co2        1 MGT602   0.0000
     7 O2B         14.4380    20.9740    30.6960 O.co2        1 MGT602  -1.0000
     8 O3A         14.7840    23.3360    31.3630 O.3          1 MGT602   0.0000
     9 PA          16.1550    23.6390    32.1460 P.3          1 MGT602   0.0000
    10 O1A         16.8350    22.3660    32.6470 O.co2        1 MGT602   0.0000
    11 O2A         17.1350    24.3940    31.3260 O.co2        1 MGT602  -1.0000
    12 O5'         15.6240    24.5220    33.3650 O.3          1 MGT602   0.0000
    13 C5'         14.4970    24.1180    34.0750 C.3          1 MGT602   0.0000
    14 C4'         13.4330    25.0840    34.1930 C.3          1 MGT602   0.0000
    15 O4'         13.9440    26.4000    34.5370 O.3          1 MGT602   0.0000
    16 C3'         12.7370    25.2620    32.9080 C.3          1 MGT602   0.0000
    17 O3'         11.3610    25.5130    33.1470 O.3          1 MGT602   0.0000
    18 C2'         13.4250    26.3980    32.2880 C.3          1 MGT602   0.0000
    19 O2'         12.6090    27.0980    31.3650 O.3          1 MGT602   0.0000
    20 C1'         13.7450    27.2660    33.4510 C.3          1 MGT602   0.0000
    21 N9          15.0160    27.9670    33.2960 N.2          1 MGT602   1.0000
    22 C8          16.1850    27.4550    32.8850 C.2          1 MGT602   0.0000
    23 N7          17.1360    28.4300    32.9330 N.pl3        1 MGT602   0.0000
    24 CM7         18.5350    28.2410    32.5350 C.3          1 MGT602   0.0000
    25 C5          16.5640    29.5650    33.3970 C.2          1 MGT602   0.0000
    26 C6          16.9740    30.8880    33.6950 C.2          1 MGT602   0.0000
    27 O6          18.2930    31.3290    33.5130 O.2          1 MGT602   0.0000
    28 N1          16.0470    31.7700    34.1720 N.pl3        1 MGT602   0.0000
    29 C2          14.7520    31.4190    34.3700 C.2          1 MGT602   0.0000
    30 N2          13.7720    32.3880    34.8780 N.pl3        1 MGT602   0.0000
    31 N3          14.3350    30.1700    34.1180 N.2          1 MGT602   0.0000
    32 C4          15.2070    29.2540    33.6370 C.2          1 MGT602   0.0000
    33 HG          15.2807    21.7027    27.3313 H            1 MGT602   0.0000
    34 H5'1        14.7909    23.8747    34.9994 H            1 MGT602   0.0000
    35 H5'2        14.1245    23.3092    33.6199 H            1 MGT602   0.0000
    36 H4'         12.7815    24.7835    34.8896 H            1 MGT602   0.0000
    37 H3'         12.8444    24.4444    32.3424 H            1 MGT602   0.0000
    38 H6          10.8205    25.1627    32.3820 H            1 MGT602   0.0000
    39 H2'         14.2665    26.0918    31.8429 H            1 MGT602   0.0000
    40 H8          12.7197    26.7007    30.4540 H            1 MGT602   0.0000
    41 H1'         13.0009    27.9081    33.6354 H            1 MGT602   0.0000
    42 H10         16.3348    26.5110    32.5910 H            1 MGT602   0.0000
    43 HM71        19.0356    29.0977    32.6594 H            1 MGT602   0.0000
    44 HM72        18.9490    27.5278    33.1006 H            1 MGT602   0.0000
    45 HM73        18.5742    27.9686    31.5736 H            1 MGT602   0.0000
    46 H14         16.3323    32.7051    34.3822 H            1 MGT602   0.0000
    47 H15         12.8213    32.1111    35.0178 H            1 MGT602   0.0000
    48 H16         14.0555    33.3246    35.0841 H            1 MGT602   0.0000
@<TRIPOS>BOND
     1    1    2      ar
     2    1    3      ar
     3    1    4       1
     4    4    5       1
     5    5    6      ar
     6    5    7      ar
     7    5    8       1
     8    8    9       1
     9    9   10      ar
    10    9   11      ar
    11    9   12       1
    12   12   13       1
    13   13   14       1
    14   14   15       1
    15   14   16       1
    16   15   20       1
    17   16   17       1
    18   16   18       1
    19   18   19       1
    20   18   20       1
    21   20   21       1
    22   21   22       2
    23   21   32       1
    24   22   23       1
    25   23   24       1
    26   23   25       1
    27   25   26       1
    28   25   32       2
    29   26   27       2
    30   26   28       1
    31   28   29       1
    32   29   30       1
    33   29   31       2
    34   31   32       1
    35    1   33       1
    36   30   48       1
    37   30   47       1
    38   28   46       1
    39   13   34       1
    40   13   35       1
    41   14   36       1
    42   16   37       1
    43   17   38       1
    44   18   39       1
    45   19   40       1
    46   20   41       1
    47   22   42       1
    48   24   43       1
    49   24   44       1
    50   24   45       1
@<TRIPOS>SUBSTRUCTURE
     1 MGT602      1 GROUP             4 A     MGT     0 **** MGT A 602
