@<TRIPOS>MOLECULE
./coach420/2e3r/ligand.pdb
 40 39 0 0 0
SMALL
GASTEIGER

@<TRIPOS>ATOM
      1  O19       38.1610   39.5550   27.7110 O.2   1100  18C1100    -0.2733
      2  C19       38.3880   39.4100   26.5080 C.2   1100  18C1100     0.2415
      3  N2        39.5710   39.6460   25.9340 N.am  1100  18C1100    -0.2015
      4  C2        40.7580   40.1710   26.6080 C.3   1100  18C1100     0.1626
      5  C1        41.9450   40.1010   25.6430 C.3   1100  18C1100     0.2065
      6  O1        41.6720   40.9360   24.4970 O.3   1100  18C1100    -0.2184
      7  C3        40.5980   41.5890   27.1790 C.3   1100  18C1100     0.1961
      8  C4        39.6450   42.3840   26.2890 C.2   1100  18C1100     0.0034
      9  C5        38.5310   42.9760   26.7180 C.2   1100  18C1100    -0.0282
     10  C6        37.6930   43.6890   25.6690 C.3   1100  18C1100     0.0258
     11  C7        37.5100   45.1730   25.9420 C.3   1100  18C1100     0.0047
     12  C8        36.3380   45.7180   25.1350 C.3   1100  18C1100     0.0003
     13  C9        36.6950   47.0430   24.4630 C.3   1100  18C1100     0.0000
     14  C10       35.5990   47.5980   23.5470 C.3   1100  18C1100     0.0000
     15  C11       35.1350   46.5830   22.4970 C.3   1100  18C1100     0.0000
     16  C12       35.0400   47.1820   21.0940 C.3   1100  18C1100     0.0000
     17  C13       33.9850   46.4960   20.2250 C.3   1100  18C1100     0.0000
     18  C14       34.4120   45.1260   19.7040 C.3   1100  18C1100     0.0000
     19  C15       33.9440   44.9080   18.2660 C.3   1100  18C1100     0.0000
     20  C16       33.4670   43.4820   18.0160 C.3   1100  18C1100     0.0000
     21  C17       32.5950   43.4020   16.7630 C.3   1100  18C1100     0.0000
     22  C18       32.9200   42.1870   15.9180 C.3   1100  18C1100     0.0000
     23  O3        40.1250   41.4350   28.5230 O.3   1100  18C1100    -0.2164
     24  C20       37.2970   38.9850   25.5400 C.3   1100  18C1100     0.0868
     25  C21       36.2100   40.0570   25.5520 C.3   1100  18C1100     0.0096
     26  C22       35.2500   40.0290   24.3630 C.3   1100  18C1100     0.0005
     27  C23       34.5190   41.3720   24.3230 C.3   1100  18C1100     0.0000
     28  C24       33.4450   41.4430   23.2480 C.3   1100  18C1100     0.0000
     29  C25       32.2410   42.2570   23.7100 C.3   1100  18C1100     0.0000
     30  C26       32.3420   43.7180   23.3020 C.3   1100  18C1100     0.0000
     31  C27       31.9190   44.6540   24.4320 C.3   1100  18C1100     0.0000
     32  C28       30.9400   45.7050   23.9220 C.3   1100  18C1100     0.0000
     33  C29       31.3690   47.1280   24.2760 C.3   1100  18C1100     0.0000
     34  C30       31.1060   48.0580   23.0950 C.3   1100  18C1100     0.0000
     35  C31       32.2200   49.0740   22.8710 C.3   1100  18C1100     0.0000
     36  C32       31.7080   50.2950   22.1130 C.3   1100  18C1100     0.0000
     37  C33       31.9490   50.1800   20.6070 C.3   1100  18C1100     0.0000
     38  C34       30.8520   50.8740   19.8030 C.3   1100  18C1100     0.0000
     39  C35       29.4740   50.2640   20.0410 C.3   1100  18C1100     0.0000
     40  C36       28.4160   50.9260   19.1670 C.3   1100  18C1100     0.0000
@<TRIPOS>BOND
     1     1     2    2
     2     2    24    1
     3     2     3   am
     4     3     4    1
     5     4     5    1
     6     4     7    1
     7     5     6    1
     8     7     8    1
     9     7    23    1
    10     8     9    2
    11     9    10    1
    12    10    11    1
    13    11    12    1
    14    12    13    1
    15    13    14    1
    16    14    15    1
    17    15    16    1
    18    16    17    1
    19    17    18    1
    20    18    19    1
    21    19    20    1
    22    20    21    1
    23    21    22    1
    24    24    25    1
    25    25    26    1
    26    26    27    1
    27    27    28    1
    28    28    29    1
    29    29    30    1
    30    30    31    1
    31    31    32    1
    32    32    33    1
    33    33    34    1
    34    34    35    1
    35    35    36    1
    36    36    37    1
    37    37    38    1
    38    38    39    1
    39    39    40    1
