@<TRIPOS>MOLECULE
1c9w_NAP_1_ligand
   73    77     1     0     0
SMALL
NO_CHARGES


@<TRIPOS>ATOM
     1 PA         -16.7420    46.0580    20.3430 P.3          1 NAP350   0.0000
     2 O1A        -16.3080    44.8190    19.6350 O.co2        1 NAP350   0.0000
     3 O2A        -16.9410    46.0130    21.7770 O.co2        1 NAP350  -1.0000
     4 O5B        -18.0780    46.5820    19.5650 O.3          1 NAP350   0.0000
     5 C5B        -18.7890    47.7600    19.9890 C.3          1 NAP350   0.0000
     6 C4B        -19.9610    47.9650    19.0530 C.3          1 NAP350   0.0000
     7 O4B        -20.7880    46.8110    19.1520 O.3          1 NAP350   0.0000
     8 C3B        -20.7990    49.1440    19.3870 C.3          1 NAP350   0.0000
     9 O3B        -21.3090    49.7840    18.2000 O.3          1 NAP350   0.0000
    10 C2B        -21.9550    48.5650    20.1560 C.3          1 NAP350   0.0000
    11 O2B        -23.1870    49.2580    19.9440 O.3          1 NAP350   0.0000
    12 C1B        -22.1120    47.1870    19.5490 C.3          1 NAP350   0.0000
    13 N9A        -22.5660    46.1080    20.4780 N.pl3        1 NAP350   0.0000
    14 C8A        -22.2340    45.8900    21.8090 C.2          1 NAP350   0.0000
    15 N7A        -22.8110    44.8300    22.3100 N.2          1 NAP350   0.0000
    16 C5A        -23.5580    44.3150    21.2800 C.ar         1 NAP350   0.0000
    17 C6A        -24.3990    43.1840    21.1830 C.ar         1 NAP350   0.0000
    18 N6A        -24.6000    42.3670    22.2070 N.pl3        1 NAP350   0.0000
    19 N1A        -25.0160    42.9410    19.9830 N.ar         1 NAP350   0.0000
    20 C2A        -24.8180    43.7660    18.9290 C.ar         1 NAP350   0.0000
    21 N3A        -24.0380    44.8530    18.9380 N.ar         1 NAP350   0.0000
    22 C4A        -23.4300    45.0750    20.1550 C.ar         1 NAP350   0.0000
    23 O3         -15.7080    47.2260    19.8950 O.3          1 NAP350   0.0000
    24 PN         -15.0590    48.5490    20.5310 P.3          1 NAP350   0.0000
    25 O1N        -15.7570    49.6700    19.8880 O.co2        1 NAP350   0.0000
    26 O2N        -13.5840    48.4140    20.2640 O.co2        1 NAP350  -1.0000
    27 O5D        -15.1840    48.4950    22.1390 O.3          1 NAP350   0.0000
    28 C5D        -14.2830    47.6920    22.9740 C.3          1 NAP350   0.0000
    29 C4D        -13.5930    48.4960    24.1130 C.3          1 NAP350   0.0000
    30 O4D        -12.1930    48.3320    23.9360 O.3          1 NAP350   0.0000
    31 C3D        -13.7650    50.0260    24.0250 C.3          1 NAP350   0.0000
    32 O3D        -14.9690    50.5470    24.5950 O.3          1 NAP350   0.0000
    33 C2D        -12.5450    50.5650    24.7200 C.3          1 NAP350   0.0000
    34 O2D        -12.6670    50.6190    26.1270 O.3          1 NAP350   0.0000
    35 C1D        -11.4710    49.5220    24.2710 C.3          1 NAP350   0.0000
    36 N1N        -10.6970    49.9950    23.0720 N.ar         1 NAP350   1.0000
    37 C2N         -9.3240    50.2190    23.3140 C.ar         1 NAP350   0.0000
    38 C3N         -8.5180    50.6710    22.2010 C.ar         1 NAP350   0.0000
    39 C7N         -7.0780    50.9290    22.3680 C.2          1 NAP350   0.0000
    40 O7N         -6.3560    51.3210    21.4340 O.2          1 NAP350   0.0000
    41 N7N         -6.4860    50.7470    23.5680 N.am         1 NAP350   0.0000
    42 C4N         -9.1400    50.8630    20.9430 C.ar         1 NAP350   0.0000
    43 C5N        -10.4620    50.6440    20.7220 C.ar         1 NAP350   0.0000
    44 C6N        -11.2450    50.2120    21.7730 C.ar         1 NAP350   0.0000
    45 P2B        -23.8490    50.1580    21.0590 P.3          1 NAP350   0.0000
    46 O1X        -24.6450    49.1800    21.8280 O.co2        1 NAP350   0.0000
    47 O2X        -22.8120    50.8800    21.8400 O.co2        1 NAP350  -1.0000
    48 O3X        -24.6720    51.0170    20.1950 O.co2        1 NAP350  -1.0000
    49 H5B1       -18.1822    48.5540    19.9512 H            1 NAP350   0.0000
    50 H5B2       -19.1200    47.6376    20.9247 H            1 NAP350   0.0000
    51 H4B        -19.6248    48.0523    18.1153 H            1 NAP350   0.0000
    52 H3B        -20.2886    49.7944    19.9496 H            1 NAP350   0.0000
    53 H5         -21.8682    49.1343    17.6851 H            1 NAP350   0.0000
    54 H2B        -21.7417    48.5044    21.1311 H            1 NAP350   0.0000
    55 H1B        -22.7122    47.2289    18.7503 H            1 NAP350   0.0000
    56 H8A        -21.6183    46.4819    22.3291 H            1 NAP350   0.0000
    57 H6A1       -25.2019    41.5751    22.1041 H            1 NAP350   0.0000
    58 H6A2       -24.1498    42.5425    23.0825 H            1 NAP350   0.0000
    59 H2A        -25.2919    43.5460    18.0763 H            1 NAP350   0.0000
    60 H5D1       -13.5720    47.3045    22.3872 H            1 NAP350   0.0000
    61 H5D2       -14.8135    46.9522    23.3879 H            1 NAP350   0.0000
    62 H4D        -13.8792    48.1579    25.0095 H            1 NAP350   0.0000
    63 H3D        -13.7270    50.2950    23.0626 H            1 NAP350   0.0000
    64 H16        -15.0048    50.3158    25.5673 H            1 NAP350   0.0000
    65 H2D        -12.3165    51.4696    24.3602 H            1 NAP350   0.0000
    66 H18        -11.7660    50.5012    26.5445 H            1 NAP350   0.0000
    67 H1D        -10.8435    49.3356    25.0269 H            1 NAP350   0.0000
    68 H2N         -8.9247    50.0711    24.2188 H            1 NAP350   0.0000
    69 H7N1        -5.5076    50.9240    23.6748 H            1 NAP350   0.0000
    70 H7N2        -7.0260    50.4352    24.3498 H            1 NAP350   0.0000
    71 H4N         -8.5768    51.1759    20.1782 H            1 NAP350   0.0000
    72 H5N        -10.8597    50.7927    19.8166 H            1 NAP350   0.0000
    73 H6N        -12.2194    50.0472    21.6204 H            1 NAP350   0.0000
@<TRIPOS>BOND
     1    1    2      ar
     2    1    3      ar
     3    1    4       1
     4    1   23       1
     5    4    5       1
     6    5    6       1
     7    6    7       1
     8    6    8       1
     9    7   12       1
    10    8    9       1
    11    8   10       1
    12   10   11       1
    13   10   12       1
    14   11   45       1
    15   12   13       1
    16   13   14       1
    17   13   22       1
    18   14   15       2
    19   15   16       1
    20   16   17      ar
    21   16   22      ar
    22   17   18       1
    23   17   19      ar
    24   19   20      ar
    25   20   21      ar
    26   21   22      ar
    27   23   24       1
    28   24   25      ar
    29   24   26      ar
    30   24   27       1
    31   27   28       1
    32   28   29       1
    33   29   30       1
    34   29   31       1
    35   30   35       1
    36   31   32       1
    37   31   33       1
    38   33   34       1
    39   33   35       1
    40   35   36       1
    41   36   37      ar
    42   36   44      ar
    43   37   38      ar
    44   38   39       1
    45   38   42      ar
    46   39   40       2
    47   39   41      am
    48   42   43      ar
    49   43   44      ar
    50   45   46      ar
    51   45   47      ar
    52   45   48      ar
    53   43   72       1
    54    5   49       1
    55    5   50       1
    56    6   51       1
    57    8   52       1
    58    9   53       1
    59   10   54       1
    60   12   55       1
    61   14   56       1
    62   18   57       1
    63   18   58       1
    64   20   59       1
    65   44   73       1
    66   28   60       1
    67   28   61       1
    68   29   62       1
    69   31   63       1
    70   32   64       1
    71   33   65       1
    72   34   66       1
    73   35   67       1
    74   37   68       1
    75   41   69       1
    76   41   70       1
    77   42   71       1
@<TRIPOS>SUBSTRUCTURE
     1 NAP350      1 GROUP             4 A     NAP     0 **** NAP A 350
