@<TRIPOS>MOLECULE
3b5i_SAH_2_ligand
   46    48     1     0     0
SMALL
NO_CHARGES


@<TRIPOS>ATOM
     1 N            7.6840    31.7170     8.4180 N.4          1 SAH401   1.0000
     2 CA           7.6050    31.8430     9.8690 C.3          1 SAH401   0.0000
     3 CB           8.9720    31.8960    10.5480 C.3          1 SAH401   0.0000
     4 CG          10.1700    32.0360     9.6330 C.3          1 SAH401   0.0000
     5 SD          11.7980    31.9000    10.4030 S.3          1 SAH401   0.0000
     6 C            6.8710    33.0870    10.3090 C.2          1 SAH401   0.0000
     7 O            6.3230    33.8170     9.4730 O.co2        1 SAH401   0.0000
     8 OXT          6.8250    33.3580    11.5220 O.co2        1 SAH401  -1.0000
     9 C5'         12.6060    31.1650     8.9720 C.3          1 SAH401   0.0000
    10 C4'         12.1710    29.6280     8.8240 C.3          1 SAH401   0.0000
    11 O4'         12.4690    29.2010     7.5020 O.3          1 SAH401   0.0000
    12 C3'         12.8450    28.6570     9.8030 C.3          1 SAH401   0.0000
    13 O3'         11.8600    27.8930    10.4820 O.3          1 SAH401   0.0000
    14 C2'         13.7280    27.8040     8.9230 C.3          1 SAH401   0.0000
    15 O2'         13.7700    26.4690     9.3710 O.3          1 SAH401   0.0000
    16 C1'         13.0510    27.9280     7.5560 C.3          1 SAH401   0.0000
    17 N9          14.0180    27.7480     6.4630 N.pl3        1 SAH401   0.0000
    18 C8          15.2110    28.4040     6.2250 C.2          1 SAH401   0.0000
    19 N7          15.7870    27.8720     5.1140 N.2          1 SAH401   0.0000
    20 C5          14.9760    26.8950     4.6560 C.ar         1 SAH401   0.0000
    21 C6          15.0820    26.0310     3.5650 C.ar         1 SAH401   0.0000
    22 N6          16.1410    26.0930     2.7440 N.pl3        1 SAH401   0.0000
    23 N1          14.0490    25.1150     3.3620 N.ar         1 SAH401   0.0000
    24 C2          12.9650    25.0580     4.2360 C.ar         1 SAH401   0.0000
    25 N3          12.8710    25.9130     5.3200 N.ar         1 SAH401   0.0000
    26 C4          13.8650    26.8060     5.5060 C.ar         1 SAH401   0.0000
    27 H1           6.7606    31.6878     8.0352 H            1 SAH401   0.0000
    28 H2           8.1762    32.5019     8.0416 H            1 SAH401   0.0000
    29 HA           7.1118    31.0488    10.2239 H            1 SAH401   0.0000
    30 HB1          9.0853    31.0514    11.0713 H            1 SAH401   0.0000
    31 HB2          8.9722    32.6774    11.1721 H            1 SAH401   0.0000
    32 HG1         10.1150    32.9342     9.1969 H            1 SAH401   0.0000
    33 HG2         10.1039    31.3223     8.9357 H            1 SAH401   0.0000
    34 H5'1        13.5978    31.2186     9.0881 H            1 SAH401   0.0000
    35 H5'2        12.3394    31.6652     8.1482 H            1 SAH401   0.0000
    36 H4'         11.1815    29.5689     8.9562 H            1 SAH401   0.0000
    37 H3'         13.4018    29.1635    10.4614 H            1 SAH401   0.0000
    38 H12         11.3252    27.3720     9.8168 H            1 SAH401   0.0000
    39 H2'         14.6517    28.1855     8.8870 H            1 SAH401   0.0000
    40 H14         12.8469    26.0845     9.3600 H            1 SAH401   0.0000
    41 H1'         12.3344    27.2347     7.4793 H            1 SAH401   0.0000
    42 H16         15.5881    29.1468     6.7782 H            1 SAH401   0.0000
    43 H17         16.2071    25.4692     1.9652 H            1 SAH401   0.0000
    44 H18         16.8644    26.7630     2.9108 H            1 SAH401   0.0000
    45 H19         12.2413    24.3865     4.0768 H            1 SAH401   0.0000
    46 H20          8.1693    30.8750     8.1825 H            1 SAH401   0.0000
@<TRIPOS>BOND
     1    1    2       1
     2    2    3       1
     3    2    6       1
     4    3    4       1
     5    4    5       1
     6    5    9       1
     7    6    7      ar
     8    6    8      ar
     9    9   10       1
    10   10   11       1
    11   10   12       1
    12   11   16       1
    13   12   13       1
    14   12   14       1
    15   14   15       1
    16   14   16       1
    17   16   17       1
    18   17   18       1
    19   17   26       1
    20   18   19       2
    21   19   20       1
    22   20   21      ar
    23   20   26      ar
    24   21   22       1
    25   21   23      ar
    26   23   24      ar
    27   24   25      ar
    28   25   26      ar
    29    1   27       1
    30    1   28       1
    31    2   29       1
    32    3   30       1
    33    3   31       1
    34    4   32       1
    35    4   33       1
    36    1   46       1
    37    9   34       1
    38    9   35       1
    39   10   36       1
    40   12   37       1
    41   13   38       1
    42   14   39       1
    43   15   40       1
    44   16   41       1
    45   18   42       1
    46   22   43       1
    47   22   44       1
    48   24   45       1
@<TRIPOS>SUBSTRUCTURE
     1 SAH401      1 GROUP             4 B     SAH     0 **** SAH B 401
