@<TRIPOS>MOLECULE
1yti_PHE_LEU_GLU_LYS_1_ligand
   79    79     4     0     0
SMALL
NO_CHARGES


@<TRIPOS>ATOM
     1 N          -19.5460    -1.5900     0.2490 N.4          1 PHE101   1.0000
     2 CA         -19.8100    -2.9310    -0.2170 C.3          1 PHE101   0.0000
     3 C          -20.7860    -2.6860    -1.3540 C.2          1 PHE101   0.0000
     4 O          -21.7070    -1.8970    -1.1470 O.2          1 PHE101   0.0000
     5 CB         -20.4830    -3.8010     0.8500 C.3          1 PHE101   0.0000
     6 CG         -20.8710    -5.1740     0.3070 C.ar         1 PHE101   0.0000
     7 CD1        -19.9080    -6.0060    -0.2550 C.ar         1 PHE101   0.0000
     8 CD2        -22.2090    -5.5550     0.2930 C.ar         1 PHE101   0.0000
     9 CE1        -20.2920    -7.2080    -0.8400 C.ar         1 PHE101   0.0000
    10 CE2        -22.5900    -6.7610    -0.2960 C.ar         1 PHE101   0.0000
    11 CZ         -21.6280    -7.5810    -0.8630 C.ar         1 PHE101   0.0000
    12 H1         -19.1083    -1.0639    -0.4801 H            1 PHE101   0.0000
    13 H2         -20.4069    -1.1510     0.5062 H            1 PHE101   0.0000
    14 HA         -18.9729    -3.3628    -0.5528 H            1 PHE101   0.0000
    15 HB1        -21.3078    -3.3364     1.1723 H            1 PHE101   0.0000
    16 HB2        -19.8492    -3.9232     1.6138 H            1 PHE101   0.0000
    17 HD1        -18.9439    -5.7410    -0.2384 H            1 PHE101   0.0000
    18 HD2        -22.9001    -4.9623     0.7066 H            1 PHE101   0.0000
    19 HE1        -19.6014    -7.8065    -1.2461 H            1 PHE101   0.0000
    20 HE2        -23.5525    -7.0321    -0.3088 H            1 PHE101   0.0000
    21 HZ         -21.8974    -8.4442    -1.2900 H            1 PHE101   0.0000
    22 N          -20.4760    -3.2760    -2.5150 N.am         2 LEU102   0.0000
    23 CA         -21.2480    -3.2450    -3.7580 C.3          2 LEU102   0.0000
    24 C          -21.0640    -4.6130    -4.3840 C.2          2 LEU102   0.0000
    25 O          -19.9300    -5.0980    -4.3980 O.2          2 LEU102   0.0000
    26 CB         -20.7020    -2.2740    -4.7640 C.3          2 LEU102   0.0000
    27 CG         -21.4900    -1.0580    -5.1650 C.3          2 LEU102   0.0000
    28 CD1        -21.6700    -0.1130    -3.9870 C.3          2 LEU102   0.0000
    29 CD2        -20.7370    -0.3690    -6.2840 C.3          2 LEU102   0.0000
    30 H11        -19.6219    -3.7957    -2.5352 H            2 LEU102   0.0000
    31 H12        -22.2140    -3.0634    -3.5741 H            2 LEU102   0.0000
    32 H13        -20.5346    -2.7945    -5.6013 H            2 LEU102   0.0000
    33 H14        -19.8324    -1.9426    -4.3980 H            2 LEU102   0.0000
    34 HG         -22.3884    -1.3430    -5.4991 H            2 LEU102   0.0000
    35 HD11       -22.1959     0.6862    -4.2781 H            2 LEU102   0.0000
    36 HD12       -22.1589    -0.5845    -3.2531 H            2 LEU102   0.0000
    37 HD13       -20.7735     0.1807    -3.6552 H            2 LEU102   0.0000
    38 HD21       -21.2398     0.4461    -6.5717 H            2 LEU102   0.0000
    39 HD22       -19.8288    -0.1035    -5.9605 H            2 LEU102   0.0000
    40 HD23       -20.6452    -0.9947    -7.0586 H            2 LEU102   0.0000
    41 N          -22.1010    -5.2660    -4.8790 N.am         3 GLU103   0.0000
    42 CA         -21.9400    -6.5070    -5.6200 C.3          3 GLU103   0.0000
    43 C          -23.0920    -6.6830    -6.5970 C.2          3 GLU103   0.0000
    44 O          -24.1070    -5.9950    -6.4980 O.2          3 GLU103   0.0000
    45 CB         -21.9070    -7.6960    -4.6930 C.3          3 GLU103   0.0000
    46 CG         -23.1970    -7.7740    -3.9420 C.3          3 GLU103   0.0000
    47 CD         -23.5470    -9.1470    -3.4410 C.2          3 GLU103   0.0000
    48 OE1        -22.6590    -9.9440    -3.1200 O.co2        3 GLU103   0.0000
    49 OE2        -24.7460    -9.3940    -3.3680 O.co2        3 GLU103  -1.0000
    50 H22        -23.0201    -4.8972    -4.7404 H            3 GLU103   0.0000
    51 H23        -21.0820    -6.4705    -6.1324 H            3 GLU103   0.0000
    52 H24        -21.1502    -7.5949    -4.0472 H            3 GLU103   0.0000
    53 H25        -21.7803    -8.5321    -5.2268 H            3 GLU103   0.0000
    54 HG1        -23.9302    -7.4670    -4.5487 H            3 GLU103   0.0000
    55 HG2        -23.1371    -7.1605    -3.1546 H            3 GLU103   0.0000
    56 N          -22.8990    -7.5990    -7.5250 N.am         4 LYS104   0.0000
    57 CA         -23.8650    -7.9150    -8.5530 C.3          4 LYS104   0.0000
    58 C          -24.4680    -9.2610    -8.2040 C.2          4 LYS104   0.0000
    59 O          -23.7190   -10.1140    -7.7030 O.co2        4 LYS104   0.0000
    60 CB         -23.2190    -8.0680    -9.8960 C.3          4 LYS104   0.0000
    61 CG         -22.8600    -6.8350   -10.6580 C.3          4 LYS104   0.0000
    62 CD         -22.2640    -7.4100   -11.9210 C.3          4 LYS104   0.0000
    63 CE         -22.5190    -6.3810   -12.9630 C.3          4 LYS104   0.0000
    64 NZ         -22.0780    -6.9230   -14.2120 N.4          4 LYS104   1.0000
    65 OXT        -25.6590    -9.4400    -8.4630 O.co2        4 LYS104  -1.0000
    66 H28        -22.0358    -8.1037    -7.5175 H            4 LYS104   0.0000
    67 H29        -24.5771    -7.2138    -8.5879 H            4 LYS104   0.0000
    68 H30        -23.8473    -8.5959   -10.4675 H            4 LYS104   0.0000
    69 H31        -22.3753    -8.5875    -9.7604 H            4 LYS104   0.0000
    70 H32        -22.1922    -6.2816   -10.1602 H            4 LYS104   0.0000
    71 H33        -23.6692    -6.2821   -10.8569 H            4 LYS104   0.0000
    72 H34        -22.7104    -8.2722   -12.1605 H            4 LYS104   0.0000
    73 H35        -21.2821    -7.5628   -11.8095 H            4 LYS104   0.0000
    74 H36        -22.0090    -5.5470   -12.7526 H            4 LYS104   0.0000
    75 H37        -23.4960    -6.1723   -13.0062 H            4 LYS104   0.0000
    76 HZ1        -22.2349    -6.2549   -14.9393 H            4 LYS104   0.0000
    77 HZ2        -21.1020    -7.1337   -14.1579 H            4 LYS104   0.0000
    78 HZ3        -22.5890    -7.7591   -14.4115 H            4 LYS104   0.0000
    79 H41        -18.9400    -1.6265     1.0436 H            4 LYS104   0.0000
@<TRIPOS>BOND
     1    1    2       1
     2    2    5       1
     3    2    3       1
     4    5    6       1
     5    6    7      ar
     6    6    8      ar
     7    7    9      ar
     8    9   11      ar
     9   11   10      ar
    10   10    8      ar
    11    3    4       2
    12    1   12       1
    13    1   13       1
    14    2   14       1
    15    3   22      am
    16    5   15       1
    17    5   16       1
    18    7   17       1
    19    8   18       1
    20    9   19       1
    21   10   20       1
    22   11   21       1
    23   22   23       1
    24   23   26       1
    25   23   24       1
    26   26   27       1
    27   27   28       1
    28   27   29       1
    29   24   25       2
    30   29   40       1
    31   22   30       1
    32   23   31       1
    33   24   41      am
    34   26   32       1
    35   26   33       1
    36   27   34       1
    37   28   35       1
    38   28   36       1
    39   28   37       1
    40   29   38       1
    41   29   39       1
    42   41   42       1
    43   42   45       1
    44   42   43       1
    45   45   46       1
    46   46   47       1
    47   47   48      ar
    48   47   49      ar
    49   43   44       2
    50   46   55       1
    51   41   50       1
    52   42   51       1
    53   43   56      am
    54   45   52       1
    55   45   53       1
    56   46   54       1
    57   56   57       1
    58   57   60       1
    59   57   58       1
    60   60   61       1
    61   61   62       1
    62   62   63       1
    63   63   64       1
    64   58   59      ar
    65   58   65      ar
    66   64   78       1
    67   56   66       1
    68   57   67       1
    69   60   68       1
    70   60   69       1
    71   61   70       1
    72   61   71       1
    73   62   72       1
    74   62   73       1
    75   63   74       1
    76   63   75       1
    77   64   76       1
    78   64   77       1
    79    1   79       1
@<TRIPOS>SUBSTRUCTURE
     1 PHE101      1 RESIDUE           4 I     PHE     0 **** PHE I 101
     2 LEU102     22 RESIDUE           4 I     LEU     0 **** LEU I 102
     3 GLU103     41 RESIDUE           4 I     GLU     0 **** GLU I 103
     4 LYS104     56 RESIDUE           4 I     LYS     0 **** LYS I 104
