@<TRIPOS>MOLECULE
5arl_DCM_2_ligand
   32    33     1     0     0
SMALL
NO_CHARGES


@<TRIPOS>ATOM
     1 N1         -25.1820   -30.8360   -12.0020 N.pl3        1 DCM1120   0.0000
     2 C2         -26.2420   -30.3270   -11.2030 C.2          1 DCM1120   0.0000
     3 N3         -26.1940   -29.0310   -10.7870 N.2          1 DCM1120   0.0000
     4 C4         -25.1510   -28.2150   -11.1440 C.2          1 DCM1120   0.0000
     5 C5         -24.1270   -28.7100   -11.9390 C.2          1 DCM1120   0.0000
     6 C6         -24.1740   -30.0320   -12.3610 C.2          1 DCM1120   0.0000
     7 O2         -27.2030   -31.0520   -10.8680 O.2          1 DCM1120   0.0000
     8 N4         -25.0730   -26.9140   -10.7480 N.pl3        1 DCM1120   0.0000
     9 C1'        -25.1810   -32.2100   -12.5020 C.3          1 DCM1120   0.0000
    10 C2'        -26.0150   -32.1310   -13.7610 C.3          1 DCM1120   0.0000
    11 C3'        -25.1070   -32.4070   -14.9130 C.3          1 DCM1120   0.0000
    12 C4'        -23.8300   -32.9580   -14.2930 C.3          1 DCM1120   0.0000
    13 O4'        -23.8770   -32.6740   -12.8770 O.3          1 DCM1120   0.0000
    14 O3'        -25.7310   -33.3970   -15.7270 O.3          1 DCM1120   0.0000
    15 C5'        -22.5910   -32.4280   -15.0270 C.3          1 DCM1120   0.0000
    16 O5'        -22.3580   -33.2780   -16.1610 O.3          1 DCM1120   0.0000
    17 P          -21.6950   -32.8450   -17.5910 P.3          1 DCM1120   0.0000
    18 O1P        -22.3870   -33.7190   -18.6270 O.co2        1 DCM1120   0.0000
    19 O2P        -21.9780   -31.3580   -17.7400 O.co2        1 DCM1120  -1.0000
    20 O3P        -20.2250   -33.2240   -17.4350 O.co2        1 DCM1120  -1.0000
    21 H1         -23.3638   -28.1212   -12.2050 H            1 DCM1120   0.0000
    22 H2         -23.4430   -30.3891   -12.9425 H            1 DCM1120   0.0000
    23 H3         -24.2957   -26.3514   -11.0296 H            1 DCM1120   0.0000
    24 H4         -25.7930   -26.5215   -10.1757 H            1 DCM1120   0.0000
    25 H1'        -25.5999   -32.8291   -11.8377 H            1 DCM1120   0.0000
    26 H2'1       -26.4138   -31.2183   -13.8506 H            1 DCM1120   0.0000
    27 H2'2       -26.7460   -32.8127   -13.7305 H            1 DCM1120   0.0000
    28 H3'        -24.9239   -31.5741   -15.4352 H            1 DCM1120   0.0000
    29 H4'        -23.8447   -33.9518   -14.4029 H            1 DCM1120   0.0000
    30 H10        -26.6122   -33.0540   -16.0524 H            1 DCM1120   0.0000
    31 H5'1       -21.7988   -32.4492   -14.4171 H            1 DCM1120   0.0000
    32 H5'2       -22.7516   -31.4894   -15.3323 H            1 DCM1120   0.0000
@<TRIPOS>BOND
     1    1    2       1
     2    1    6       1
     3    1    9       1
     4    2    3       1
     5    2    7       2
     6    3    4       2
     7    4    5       1
     8    4    8       1
     9    5    6       2
    10    9   10       1
    11    9   13       1
    12   10   11       1
    13   11   12       1
    14   11   14       1
    15   12   13       1
    16   12   15       1
    17   15   16       1
    18   16   17       1
    19   17   18      ar
    20   17   19      ar
    21   17   20      ar
    22    5   21       1
    23    6   22       1
    24    8   23       1
    25    8   24       1
    26    9   25       1
    27   10   26       1
    28   10   27       1
    29   11   28       1
    30   12   29       1
    31   14   30       1
    32   15   31       1
    33   15   32       1
@<TRIPOS>SUBSTRUCTURE
     1 DCM1120     1 GROUP             4 B     DCM     0 **** DCM B1120
