@<TRIPOS>MOLECULE
4asu_ADP_2_ligand
   39    41     1     0     0
SMALL
NO_CHARGES


@<TRIPOS>ATOM
     1 PB          -1.6840   -12.7610    38.0110 P.3          1 ADP600   0.0000
     2 O1B         -1.4270   -11.3020    37.7180 O.co2        1 ADP600   0.0000
     3 O2B         -1.0810   -13.7190    37.0130 O.co2        1 ADP600  -1.0000
     4 O3B         -3.1160   -13.0710    38.3730 O.co2        1 ADP600  -1.0000
     5 PA           0.7290   -13.1730    39.4160 P.3          1 ADP600   0.0000
     6 O1A          1.3180   -12.0790    38.5580 O.co2        1 ADP600   0.0000
     7 O2A          1.1080   -14.6090    39.1460 O.co2        1 ADP600  -1.0000
     8 O3A         -0.8790   -13.0410    39.3800 O.3          1 ADP600   0.0000
     9 O5'          1.0550   -12.8410    40.9580 O.3          1 ADP600   0.0000
    10 C5'          0.8900   -11.5200    41.4780 C.3          1 ADP600   0.0000
    11 C4'          1.8900   -11.2530    42.5990 C.3          1 ADP600   0.0000
    12 O4'          1.6570   -12.1540    43.6870 O.3          1 ADP600   0.0000
    13 C3'          3.3250   -11.4520    42.1340 C.3          1 ADP600   0.0000
    14 O3'          4.0800   -10.2670    42.4050 O.3          1 ADP600   0.0000
    15 C2'          3.8490   -12.6410    42.9210 C.3          1 ADP600   0.0000
    16 O2'          5.1620   -12.3970    43.4330 O.3          1 ADP600   0.0000
    17 C1'          2.8600   -12.8290    44.0620 C.3          1 ADP600   0.0000
    18 N9           2.5970   -14.2710    44.3250 N.pl3        1 ADP600   0.0000
    19 C8           1.9740   -15.1390    43.5030 C.2          1 ADP600   0.0000
    20 N7           1.9040   -16.3790    44.0550 N.2          1 ADP600   0.0000
    21 C5           2.4900   -16.3150    45.2640 C.ar         1 ADP600   0.0000
    22 C6           2.7630   -17.2570    46.3810 C.ar         1 ADP600   0.0000
    23 N6           2.3840   -18.5550    46.3150 N.pl3        1 ADP600   0.0000
    24 N1           3.4050   -16.7780    47.4730 N.ar         1 ADP600   0.0000
    25 C2           3.7940   -15.4890    47.5640 C.ar         1 ADP600   0.0000
    26 N3           3.5790   -14.5810    46.5900 N.ar         1 ADP600   0.0000
    27 C4           2.9450   -14.9230    45.4380 C.ar         1 ADP600   0.0000
    28 H5'1        -0.0385   -11.4218    41.8361 H            1 ADP600   0.0000
    29 H5'2         1.0358   -10.8574    40.7433 H            1 ADP600   0.0000
    30 H4'          1.7774   -10.3133    42.9218 H            1 ADP600   0.0000
    31 H3'          3.3433   -11.6539    41.1548 H            1 ADP600   0.0000
    32 H5           4.8373   -10.4876    43.0197 H            1 ADP600   0.0000
    33 H2'          3.8568   -13.4554    42.3408 H            1 ADP600   0.0000
    34 H7           5.6607   -13.2614    43.4973 H            1 ADP600   0.0000
    35 H1'          3.2293   -12.4063    44.8896 H            1 ADP600   0.0000
    36 H9           1.6100   -14.9010    42.6025 H            1 ADP600   0.0000
    37 H10          2.5776   -19.1718    47.0779 H            1 ADP600   0.0000
    38 H11          1.9105   -18.8970    45.5033 H            1 ADP600   0.0000
    39 H12          4.2650   -15.1923    48.3947 H            1 ADP600   0.0000
@<TRIPOS>BOND
     1    1    2      ar
     2    1    3      ar
     3    1    4      ar
     4    1    8       1
     5    5    6      ar
     6    5    7      ar
     7    5    8       1
     8    5    9       1
     9    9   10       1
    10   10   11       1
    11   11   12       1
    12   11   13       1
    13   12   17       1
    14   13   14       1
    15   13   15       1
    16   15   16       1
    17   15   17       1
    18   17   18       1
    19   18   19       1
    20   18   27       1
    21   19   20       2
    22   20   21       1
    23   21   22      ar
    24   21   27      ar
    25   22   23       1
    26   22   24      ar
    27   24   25      ar
    28   25   26      ar
    29   26   27      ar
    30   25   39       1
    31   23   38       1
    32   23   37       1
    33   10   28       1
    34   10   29       1
    35   11   30       1
    36   13   31       1
    37   14   32       1
    38   15   33       1
    39   16   34       1
    40   17   35       1
    41   19   36       1
@<TRIPOS>SUBSTRUCTURE
     1 ADP600      1 GROUP             4 B     ADP     0 **** ADP B 600
