@<TRIPOS>MOLECULE
./coach420/1mmb/ligand.pdb
 36 34 0 0 0
SMALL
GASTEIGER

@<TRIPOS>ATOM
      1 CA         11.7310   65.6910   60.3060 Ca    996  CA996       0.0000
      2  C2        26.7150   59.5580   54.0510 C.2     1  BAT1        0.0000
      3  C3        28.9930   60.5070   53.7690 C.3     1  BAT1        0.0000
      4  C4        28.7630   61.0830   56.3600 C.ar    1  BAT1        0.0000
      5  C5        29.8510   60.5540   57.0380 C.ar    1  BAT1        0.0000
      6  C6        29.5700   59.9800   58.2760 C.ar    1  BAT1        0.0000
      7  C7        28.2140   60.0110   58.6560 C.ar    1  BAT1        0.0000
      8  C8        28.0460   59.0400   51.9280 C.3     1  BAT1        0.0000
      9  C9        26.7720   58.5460   51.1770 C.3     1  BAT1        0.0000
     10  C10       26.8520   57.5350   50.0110 C.3     1  BAT1        0.0000
     11  C11       27.0410   56.1470   50.5020 C.3     1  BAT1        0.0000
     12  C12       25.5990   57.5570   49.1720 C.3     1  BAT1        0.0000
     13  C13       29.0080   59.7850   50.9680 C.2     1  BAT1        0.0000
     14  C14       31.2280   59.8340   49.9650 C.3     1  BAT1        0.0000
     15  C15       31.3620   59.0780   48.6370 C.2     1  BAT1        0.0000
     16  C16       31.7840   59.2340   46.2180 C.3     1  BAT1        0.0000
     17  C17       32.5920   59.8500   50.6920 C.3     1  BAT1        0.0000
     18  C18       32.5130   60.0700   52.2080 C.ar    1  BAT1        0.0000
     19  C19       31.9040   59.1150   53.0530 C.ar    1  BAT1        0.0000
     20  C20       31.9120   59.2580   54.4580 C.ar    1  BAT1        0.0000
     21  C21       32.5270   60.3570   55.0210 C.ar    1  BAT1        0.0000
     22  C22       33.1340   61.3240   54.1970 C.ar    1  BAT1        0.0000
     23  C23       33.1230   61.1780   52.8010 C.ar    1  BAT1        0.0000
     24  N1        25.5770   60.2040   54.1780 N.am    1  BAT1        0.0000
     25  N2        30.2070   59.2210   50.7990 N.am    1  BAT1        0.0000
     26  N3        31.6230   59.8190   47.5520 N.am    1  BAT1        0.0000
     27  O1        26.9850   58.6160   54.7440 O.2     1  BAT1        0.0000
     28  O2        24.5090   59.5670   54.8300 O.3     1  BAT1        0.0000
     29  O3        28.6800   60.8710   50.4400 O.2     1  BAT1        0.0000
     30  O4        31.2280   57.8440   48.6060 O.2     1  BAT1        0.0000
     31  S1        28.8190   61.9170   54.8320 S.3     1  BAT1        0.0000
     32  S2        27.2620   60.8370   57.3160 S.2     1  BAT1        0.0000
     33  HN1       25.5520   61.1380   53.8350 H       1  BAT1        0.0000
     34  HN2       30.3840   58.3500   51.2110 H       1  BAT1        0.0000
     35  HN3       31.6800   60.7920   47.6670 H       1  BAT1        0.0000
     36  HO2       24.0700   60.1880   55.4310 H       1  BAT1        0.0000
@<TRIPOS>BOND
     1     2    24   am
     2     2    27    2
     3     3    31    1
     4     4    31    1
     5     4     5   ar
     6     4    32   ar
     7     5     6   ar
     8     6     7   ar
     9     7    32   ar
    10     8    13    1
    11     8     9    1
    12     9    10    1
    13    10    12    1
    14    10    11    1
    15    13    29    2
    16    13    25   am
    17    14    15    1
    18    14    17    1
    19    14    25    1
    20    15    26   am
    21    15    30    2
    22    16    26    1
    23    17    18    1
    24    18    23   ar
    25    18    19   ar
    26    19    20   ar
    27    20    21   ar
    28    21    22   ar
    29    22    23   ar
    30    24    33    1
    31    24    28    1
    32    25    34    1
    33    26    35    1
    34    28    36    1
