@<TRIPOS>MOLECULE
1z4i_UMP_1_ligand
   31    32     1     0     0
SMALL
NO_CHARGES


@<TRIPOS>ATOM
     1 N1          11.2200    40.8310    25.7820 N.pl3        1 UMP1001   0.0000
     2 C2          10.6440    40.8780    24.5160 C.2          1 UMP1001   0.0000
     3 N3           9.6470    40.0020    24.1840 N.pl3        1 UMP1001   0.0000
     4 C4           9.1980    39.0830    25.0950 C.2          1 UMP1001   0.0000
     5 C5           9.7800    38.9990    26.3730 C.2          1 UMP1001   0.0000
     6 C6          10.8120    39.8800    26.7080 C.2          1 UMP1001   0.0000
     7 O2          10.9900    41.7050    23.6700 O.2          1 UMP1001   0.0000
     8 O4           8.2880    38.3440    24.7140 O.2          1 UMP1001   0.0000
     9 C1'         12.3060    41.7830    26.0640 C.3          1 UMP1001   0.0000
    10 C2'         11.9900    42.7360    27.2130 C.3          1 UMP1001   0.0000
    11 C3'         13.3600    43.1450    27.6800 C.3          1 UMP1001   0.0000
    12 C4'         14.2230    41.9520    27.2660 C.3          1 UMP1001   0.0000
    13 O3'         13.8100    44.3460    27.0810 O.3          1 UMP1001   0.0000
    14 O4'         13.4710    41.0900    26.4210 O.3          1 UMP1001   0.0000
    15 C5'         14.6320    41.2130    28.5140 C.3          1 UMP1001   0.0000
    16 O5'         15.2890    42.1550    29.3310 O.3          1 UMP1001   0.0000
    17 P           16.4590    41.5940    30.2850 P.3          1 UMP1001   0.0000
    18 OP1         17.6110    41.2640    29.4190 O.co2        1 UMP1001   0.0000
    19 OP2         16.7770    42.7190    31.2840 O.co2        1 UMP1001  -1.0000
    20 OP3         15.9720    40.2750    30.9470 O.co2        1 UMP1001  -1.0000
    21 H1           9.2432    40.0328    23.2697 H            1 UMP1001   0.0000
    22 H2           9.4599    38.3187    27.0323 H            1 UMP1001   0.0000
    23 H3          11.2517    39.8261    27.6045 H            1 UMP1001   0.0000
    24 H1'         12.4883    42.3192    25.2398 H            1 UMP1001   0.0000
    25 H2'1        11.4839    42.2713    27.9396 H            1 UMP1001   0.0000
    26 H2'2        11.4658    43.5257    26.8942 H            1 UMP1001   0.0000
    27 H3'         13.3655    43.2391    28.6756 H            1 UMP1001   0.0000
    28 H4'         15.0364    42.2747    26.7821 H            1 UMP1001   0.0000
    29 H9          14.8073    44.3297    27.0098 H            1 UMP1001   0.0000
    30 H5'1        15.2507    40.4615    28.2849 H            1 UMP1001   0.0000
    31 H5'2        13.8261    40.8504    28.9820 H            1 UMP1001   0.0000
@<TRIPOS>BOND
     1    1    2       1
     2    1    6       1
     3    1    9       1
     4    2    3       1
     5    2    7       2
     6    3    4       1
     7    4    5       1
     8    4    8       2
     9    5    6       2
    10    9   10       1
    11    9   14       1
    12   10   11       1
    13   11   12       1
    14   11   13       1
    15   12   14       1
    16   12   15       1
    17   15   16       1
    18   16   17       1
    19   17   18      ar
    20   17   19      ar
    21   17   20      ar
    22    3   21       1
    23    5   22       1
    24    6   23       1
    25    9   24       1
    26   10   25       1
    27   10   26       1
    28   11   27       1
    29   12   28       1
    30   13   29       1
    31   15   30       1
    32   15   31       1
@<TRIPOS>SUBSTRUCTURE
     1 UMP1001     1 GROUP             4 A     UMP     0 **** UMP A1001
