@<TRIPOS>MOLECULE
5bwd_FUM_1_ligand
   10     9     1     0     0
SMALL
NO_CHARGES


@<TRIPOS>ATOM
     1 O1          -1.6320   -35.4160   -13.1410 O.co2        1 FUM901   0.0000
     2 C2          -1.0590   -35.5490   -14.2470 C.2          1 FUM901   0.0000
     3 O3          -1.6910   -35.4740   -15.3230 O.co2        1 FUM901  -1.0000
     4 C4           0.3980   -35.7970   -14.2870 C.2          1 FUM901   0.0000
     5 C5           1.1140   -35.7980   -13.1640 C.2          1 FUM901   0.0000
     6 C6           2.5720   -36.0480   -13.1980 C.2          1 FUM901   0.0000
     7 O7           3.1210   -36.2910   -14.2950 O.co2        1 FUM901   0.0000
     8 O8           3.2230   -36.0120   -12.1300 O.co2        1 FUM901  -1.0000
     9 H1           0.8491   -35.9652   -15.1635 H            1 FUM901   0.0000
    10 H2           0.6615   -35.6280   -12.2886 H            1 FUM901   0.0000
@<TRIPOS>BOND
     1    1    2      ar
     2    2    3      ar
     3    2    4       1
     4    4    5       2
     5    5    6       1
     6    6    7      ar
     7    6    8      ar
     8    5   10       1
     9    4    9       1
@<TRIPOS>SUBSTRUCTURE
     1 FUM901      1 GROUP             4 A     FUM     0 **** FUM A 901
