@<TRIPOS>MOLECULE
4zdy_1YN_1_ligand
   87    93     1     0     0
SMALL
NO_CHARGES


@<TRIPOS>ATOM
     1 C12          9.4800    13.7050    20.3640 C.ar         1 1YN602   0.0000
     2 C11          8.6150    12.6870    20.7210 C.ar         1 1YN602   0.0000
     3 C01          3.4570    13.7380    18.4350 C.3          1 1YN602   0.0000
     4 C02          2.9980    14.2480    19.7920 C.3          1 1YN602   0.0000
     5 C03          4.1720    14.8380    20.5870 C.3          1 1YN602   0.0000
     6 C04          3.7610    15.2220    22.0000 C.3          1 1YN602   0.0000
     7 N05          5.2730    13.8450    20.6560 N.pl3        1 1YN602   0.0000
     8 C06          6.5860    14.1440    20.5120 C.2          1 1YN602   0.0000
     9 O07          7.0940    15.2160    20.2370 O.2          1 1YN602   0.0000
    10 N08          7.1910    12.9170    20.7490 N.pl3        1 1YN602   0.0000
    11 C09          6.2320    11.9610    20.9950 C.2          1 1YN602   0.0000
    12 N10          5.0160    12.5270    20.9390 N.2          1 1YN602   0.0000
    13 C13         10.8420    13.4760    20.3180 C.ar         1 1YN602   0.0000
    14 C14         11.3600    12.2240    20.6140 C.ar         1 1YN602   0.0000
    15 C15         10.4870    11.2150    21.0130 C.ar         1 1YN602   0.0000
    16 C16          9.1240    11.4450    21.0610 C.ar         1 1YN602   0.0000
    17 N17         12.6970    11.9470    20.3790 N.pl3        1 1YN602   0.0000
    18 C18         13.7160    12.9940    20.4580 C.3          1 1YN602   0.0000
    19 C19         14.8220    12.6990    19.4630 C.3          1 1YN602   0.0000
    20 N20         15.3620    11.3520    19.6670 N.pl3        1 1YN602   0.0000
    21 C21         14.3440    10.2990    19.7100 C.3          1 1YN602   0.0000
    22 C22         13.2610    10.6390    20.7100 C.3          1 1YN602   0.0000
    23 C23         16.5430    11.0410    19.0240 C.ar         1 1YN602   0.0000
    24 C24         17.1560    11.9640    18.1870 C.ar         1 1YN602   0.0000
    25 C25         18.3560    11.6680    17.5700 C.ar         1 1YN602   0.0000
    26 C26         18.9630    10.4440    17.7950 C.ar         1 1YN602   0.0000
    27 C27         18.3550     9.5080    18.6090 C.ar         1 1YN602   0.0000
    28 C28         17.1510     9.8070    19.2190 C.ar         1 1YN602   0.0000
    29 O29         20.1820    10.2540    17.2000 O.3          1 1YN602   0.0000
    30 C30         20.8760     9.0230    17.4110 C.3          1 1YN602   0.0000
    31 C31         21.8520     8.8560    16.2770 C.3          1 1YN602   0.0000
    32 C32         21.3230     9.4350    15.0010 C.3          1 1YN602   0.0000
    33 O33         21.7040    10.7810    15.0630 O.3          1 1YN602   0.0000
    34 C34         22.9430    10.8440    15.7490 C.3          1 1YN602   0.0000
    35 O35         23.0600     9.6250    16.4850 O.3          1 1YN602   0.0000
    36 C36         22.8180    12.0280    16.7650 C.3          1 1YN602   0.0000
    37 N37         24.1470    12.4320    17.1940 N.pl3        1 1YN602   0.0000
    38 C38         25.0700    11.7320    17.8420 C.2          1 1YN602   0.0000
    39 N39         26.1530    12.4460    18.0300 N.2          1 1YN602   0.0000
    40 C40         25.8240    13.6240    17.4650 C.2          1 1YN602   0.0000
    41 N41         24.6210    13.6760    16.9400 N.2          1 1YN602   0.0000
    42 C42         24.0350    10.9780    14.6980 C.ar         1 1YN602   0.0000
    43 C43         24.0480    11.9950    13.7390 C.ar         1 1YN602   0.0000
    44 C44         25.0540    12.0930    12.7960 C.ar         1 1YN602   0.0000
    45 C45         26.0720    11.1700    12.8200 C.ar         1 1YN602   0.0000
    46 C46         26.1020    10.1570    13.7480 C.ar         1 1YN602   0.0000
    47 C47         25.0830    10.0680    14.6770 C.ar         1 1YN602   0.0000
    48 CL8         27.3710    11.3150    11.6720 Cl           1 1YN602   0.0000
    49 CL9         22.8190    13.2150    13.6970 Cl           1 1YN602   0.0000
    50 H1           9.1188    14.6098    20.1384 H            1 1YN602   0.0000
    51 H2           2.6752    13.3600    17.9391 H            1 1YN602   0.0000
    52 H3           3.8507    14.4931    17.9108 H            1 1YN602   0.0000
    53 H4           4.1469    13.0255    18.5626 H            1 1YN602   0.0000
    54 H5           2.6019    13.4893    20.3091 H            1 1YN602   0.0000
    55 H6           2.3057    14.9569    19.6573 H            1 1YN602   0.0000
    56 H7           4.5034    15.6546    20.1144 H            1 1YN602   0.0000
    57 H8           4.5491    15.6011    22.4850 H            1 1YN602   0.0000
    58 H9           3.0329    15.9063    21.9610 H            1 1YN602   0.0000
    59 H10          3.4308    14.4111    22.4831 H            1 1YN602   0.0000
    60 H11          6.4127    10.9961    21.1856 H            1 1YN602   0.0000
    61 H12         11.4607    14.2210    20.0686 H            1 1YN602   0.0000
    62 H13         10.8482    10.3177    21.2666 H            1 1YN602   0.0000
    63 H14          8.5043    10.7122    21.3421 H            1 1YN602   0.0000
    64 H15         14.0971    13.0192    21.3822 H            1 1YN602   0.0000
    65 H16         13.3022    13.8788    20.2438 H            1 1YN602   0.0000
    66 H17         15.5561    13.3676    19.5814 H            1 1YN602   0.0000
    67 H18         14.4550    12.7678    18.5353 H            1 1YN602   0.0000
    68 H19         14.7755     9.4365    19.9746 H            1 1YN602   0.0000
    69 H20         13.9340    10.2021    18.8031 H            1 1YN602   0.0000
    70 H21         12.5417     9.9453    20.6733 H            1 1YN602   0.0000
    71 H22         13.6515    10.6660    21.6302 H            1 1YN602   0.0000
    72 H23         16.7243    12.8521    18.0293 H            1 1YN602   0.0000
    73 H24         18.7853    12.3361    16.9623 H            1 1YN602   0.0000
    74 H25         18.7844     8.6170    18.7565 H            1 1YN602   0.0000
    75 H26         16.7127     9.1274    19.8073 H            1 1YN602   0.0000
    76 H27         20.2274     8.2619    17.4185 H            1 1YN602   0.0000
    77 H28         21.3661     9.0519    18.2822 H            1 1YN602   0.0000
    78 H29         22.0747     7.8892    16.1519 H            1 1YN602   0.0000
    79 H30         20.3278     9.3480    14.9557 H            1 1YN602   0.0000
    80 H31         21.7334     8.9846    14.2081 H            1 1YN602   0.0000
    81 H32         22.2856    11.7331    17.5585 H            1 1YN602   0.0000
    82 H33         22.3597    12.7999    16.3244 H            1 1YN602   0.0000
    83 H34         24.9546    10.7864    18.1461 H            1 1YN602   0.0000
    84 H35         26.4507    14.4030    17.4466 H            1 1YN602   0.0000
    85 H36         25.0413    12.8207    12.1103 H            1 1YN602   0.0000
    86 H37         26.8505     9.4938    13.7510 H            1 1YN602   0.0000
    87 H38         25.1010     9.3295    15.3511 H            1 1YN602   0.0000
@<TRIPOS>BOND
     1    1    2      ar
     2    1   13      ar
     3    2   10       1
     4    2   16      ar
     5    3    4       1
     6    4    5       1
     7    5    6       1
     8    5    7       1
     9    7    8       1
    10    7   12       1
    11    8    9       2
    12    8   10       1
    13   10   11       1
    14   11   12       2
    15   13   14      ar
    16   14   15      ar
    17   14   17       1
    18   15   16      ar
    19   17   18       1
    20   17   22       1
    21   18   19       1
    22   19   20       1
    23   20   21       1
    24   20   23       1
    25   21   22       1
    26   23   24      ar
    27   23   28      ar
    28   24   25      ar
    29   25   26      ar
    30   26   27      ar
    31   26   29       1
    32   27   28      ar
    33   29   30       1
    34   30   31       1
    35   31   32       1
    36   31   35       1
    37   32   33       1
    38   33   34       1
    39   34   35       1
    40   34   36       1
    41   34   42       1
    42   36   37       1
    43   37   38       1
    44   37   41       1
    45   38   39       2
    46   39   40       1
    47   40   41       2
    48   42   43      ar
    49   42   47      ar
    50   43   44      ar
    51   43   49       1
    52   44   45      ar
    53   45   46      ar
    54   45   48       1
    55   46   47      ar
    56    1   50       1
    57    3   51       1
    58    3   52       1
    59    3   53       1
    60    4   54       1
    61    4   55       1
    62    5   56       1
    63    6   57       1
    64    6   58       1
    65    6   59       1
    66   11   60       1
    67   13   61       1
    68   15   62       1
    69   16   63       1
    70   18   64       1
    71   18   65       1
    72   19   66       1
    73   19   67       1
    74   21   68       1
    75   21   69       1
    76   22   70       1
    77   22   71       1
    78   24   72       1
    79   25   73       1
    80   27   74       1
    81   28   75       1
    82   30   76       1
    83   30   77       1
    84   31   78       1
    85   32   79       1
    86   32   80       1
    87   36   81       1
    88   36   82       1
    89   38   83       1
    90   40   84       1
    91   44   85       1
    92   46   86       1
    93   47   87       1
@<TRIPOS>SUBSTRUCTURE
     1 1YN602      1 GROUP             4 A     1YN     0 **** 1YN A 602
