@<TRIPOS>MOLECULE
4umy_NAP_1_ligand
   73    77     1     0     0
SMALL
NO_CHARGES


@<TRIPOS>ATOM
     1 PA          24.3350   -12.7900    13.9980 P.3          1 NAP1417   0.0000
     2 O1A         25.7420   -12.8750    13.5410 O.co2        1 NAP1417   0.0000
     3 O2A         24.1030   -12.7350    15.4760 O.co2        1 NAP1417  -1.0000
     4 O5B         23.4910   -14.0830    13.5840 O.3          1 NAP1417   0.0000
     5 C5B         23.1320   -14.3680    12.2070 C.3          1 NAP1417   0.0000
     6 C4B         22.9920   -15.8590    12.0150 C.3          1 NAP1417   0.0000
     7 O4B         24.2960   -16.4580    11.8170 O.3          1 NAP1417   0.0000
     8 C3B         22.3780   -16.6230    13.1850 C.3          1 NAP1417   0.0000
     9 O3B         20.9620   -16.5330    13.2000 O.3          1 NAP1417   0.0000
    10 C2B         22.9590   -18.0160    12.9650 C.3          1 NAP1417   0.0000
    11 O2B         22.4390   -18.7040    11.8090 O.3          1 NAP1417   0.0000
    12 C1B         24.3800   -17.6840    12.5260 C.3          1 NAP1417   0.0000
    13 N9A         25.3300   -17.5540    13.6350 N.pl3        1 NAP1417   0.0000
    14 C8A         25.9600   -16.4130    14.0690 C.2          1 NAP1417   0.0000
    15 N7A         26.7540   -16.5980    15.0960 N.2          1 NAP1417   0.0000
    16 C5A         26.6430   -17.9570    15.3570 C.ar         1 NAP1417   0.0000
    17 C6A         27.2150   -18.7840    16.3470 C.ar         1 NAP1417   0.0000
    18 N6A         28.0790   -18.3460    17.2710 N.pl3        1 NAP1417   0.0000
    19 N1A         26.8440   -20.0880    16.3690 N.ar         1 NAP1417   0.0000
    20 C2A         25.9790   -20.5310    15.4480 C.ar         1 NAP1417   0.0000
    21 N3A         25.3850   -19.8480    14.4610 N.ar         1 NAP1417   0.0000
    22 C4A         25.7600   -18.5570    14.4700 C.ar         1 NAP1417   0.0000
    23 O3          23.5430   -11.5580    13.3540 O.3          1 NAP1417   0.0000
    24 PN          22.0600   -10.9780    13.4840 P.3          1 NAP1417   0.0000
    25 O1N         21.7780   -10.2520    12.2290 O.co2        1 NAP1417   0.0000
    26 O2N         21.1420   -12.0470    13.9360 O.co2        1 NAP1417  -1.0000
    27 O5D         22.2770    -9.8770    14.6200 O.3          1 NAP1417   0.0000
    28 C5D         21.8460   -10.0740    15.9800 C.3          1 NAP1417   0.0000
    29 C4D         22.2620    -8.8730    16.8000 C.3          1 NAP1417   0.0000
    30 O4D         23.7040    -8.7520    16.7990 O.3          1 NAP1417   0.0000
    31 C3D         21.7240    -7.5140    16.3490 C.3          1 NAP1417   0.0000
    32 O3D         21.1990    -6.8460    17.4870 O.3          1 NAP1417   0.0000
    33 C2D         22.9780    -6.8070    15.8340 C.3          1 NAP1417   0.0000
    34 O2D         23.0210    -5.4280    16.1850 O.3          1 NAP1417   0.0000
    35 C1D         24.0950    -7.4370    16.6930 C.3          1 NAP1417   0.0000
    36 N1N         25.4500    -7.4590    16.0510 N.ar         1 NAP1417   1.0000
    37 C2N         26.5200    -7.2170    16.9400 C.ar         1 NAP1417   0.0000
    38 C3N         27.8270    -7.4380    16.5440 C.ar         1 NAP1417   0.0000
    39 C7N         28.9540    -7.2440    17.5470 C.2          1 NAP1417   0.0000
    40 O7N         28.6990    -6.7430    18.7150 O.2          1 NAP1417   0.0000
    41 N7N         30.1850    -7.5200    17.1510 N.am         1 NAP1417   0.0000
    42 C4N         28.0660    -7.8400    15.2270 C.ar         1 NAP1417   0.0000
    43 C5N         27.0050    -8.0290    14.3420 C.ar         1 NAP1417   0.0000
    44 C6N         25.6940    -7.8350    14.7790 C.ar         1 NAP1417   0.0000
    45 P2B         21.1260   -19.6140    11.7760 P.3          1 NAP1417   0.0000
    46 O1X         21.0620   -20.1600    10.3550 O.co2        1 NAP1417   0.0000
    47 O2X         21.2220   -20.6430    12.8600 O.co2        1 NAP1417  -1.0000
    48 O3X         19.9640   -18.7260    12.1430 O.co2        1 NAP1417  -1.0000
    49 H5B1        23.8455   -14.0202    11.5988 H            1 NAP1417   0.0000
    50 H5B2        22.2634   -13.9221    11.9910 H            1 NAP1417   0.0000
    51 H4B         22.4376   -16.0250    11.1995 H            1 NAP1417   0.0000
    52 H3B         22.7372   -16.2516    14.0412 H            1 NAP1417   0.0000
    53 H5          20.5690   -17.4498    13.1288 H            1 NAP1417   0.0000
    54 H2B         22.9332   -18.5785    13.7914 H            1 NAP1417   0.0000
    55 H1B         24.7027   -18.3974    11.9039 H            1 NAP1417   0.0000
    56 H8A         25.8250   -15.5201    13.6396 H            1 NAP1417   0.0000
    57 H6A1        28.4514   -18.9807    17.9481 H            1 NAP1417   0.0000
    58 H6A2        28.3520   -17.3841    17.2841 H            1 NAP1417   0.0000
    59 H2A         25.7452   -21.5016    15.5047 H            1 NAP1417   0.0000
    60 H5D1        22.2718   -10.8989    16.3517 H            1 NAP1417   0.0000
    61 H5D2        20.8511   -10.1714    16.0068 H            1 NAP1417   0.0000
    62 H4D         21.9655    -9.0251    17.7428 H            1 NAP1417   0.0000
    63 H3D         21.0357    -7.6115    15.6301 H            1 NAP1417   0.0000
    64 H16         20.4505    -6.2456    17.2053 H            1 NAP1417   0.0000
    65 H2D         23.1224    -6.9545    14.8555 H            1 NAP1417   0.0000
    66 H18         22.0890    -5.0717    16.2515 H            1 NAP1417   0.0000
    67 H1D         24.1361    -7.0052    17.5940 H            1 NAP1417   0.0000
    68 H2N         26.3315    -6.8831    17.8636 H            1 NAP1417   0.0000
    69 H7N1        30.9513    -7.4044    17.7830 H            1 NAP1417   0.0000
    70 H7N2        30.3497    -7.8443    16.2195 H            1 NAP1417   0.0000
    71 H4N         29.0044    -7.9932    14.9171 H            1 NAP1417   0.0000
    72 H5N         27.1831    -8.3028    13.3969 H            1 NAP1417   0.0000
    73 H6N         24.9323    -7.9753    14.1464 H            1 NAP1417   0.0000
@<TRIPOS>BOND
     1    1    2      ar
     2    1    3      ar
     3    1    4       1
     4    1   23       1
     5    4    5       1
     6    5    6       1
     7    6    7       1
     8    6    8       1
     9    7   12       1
    10    8    9       1
    11    8   10       1
    12   10   11       1
    13   10   12       1
    14   11   45       1
    15   12   13       1
    16   13   14       1
    17   13   22       1
    18   14   15       2
    19   15   16       1
    20   16   17      ar
    21   16   22      ar
    22   17   18       1
    23   17   19      ar
    24   19   20      ar
    25   20   21      ar
    26   21   22      ar
    27   23   24       1
    28   24   25      ar
    29   24   26      ar
    30   24   27       1
    31   27   28       1
    32   28   29       1
    33   29   30       1
    34   29   31       1
    35   30   35       1
    36   31   32       1
    37   31   33       1
    38   33   34       1
    39   33   35       1
    40   35   36       1
    41   36   37      ar
    42   36   44      ar
    43   37   38      ar
    44   38   39       1
    45   38   42      ar
    46   39   40       2
    47   39   41      am
    48   42   43      ar
    49   43   44      ar
    50   45   46      ar
    51   45   47      ar
    52   45   48      ar
    53   43   72       1
    54    5   49       1
    55    5   50       1
    56    6   51       1
    57    8   52       1
    58    9   53       1
    59   10   54       1
    60   12   55       1
    61   14   56       1
    62   18   57       1
    63   18   58       1
    64   20   59       1
    65   44   73       1
    66   28   60       1
    67   28   61       1
    68   29   62       1
    69   31   63       1
    70   32   64       1
    71   33   65       1
    72   34   66       1
    73   35   67       1
    74   37   68       1
    75   41   69       1
    76   41   70       1
    77   42   71       1
@<TRIPOS>SUBSTRUCTURE
     1 NAP1417     1 GROUP             4 A     NAP     0 **** NAP A1417
