@<TRIPOS>MOLECULE
./coach420/2rfh/ligand.pdb
 15 14 0 0 0
SMALL
GASTEIGER

@<TRIPOS>ATOM
      1 ZN         14.4940   -5.9810   21.1810 Zn    1308  ZN1308      0.0000
      2  CAF        8.3250   -9.3720   19.9800 C.3   1309  23N1309     0.0000
      3  CAE        7.3870   -9.0520   20.9680 C.2   1309  23N1309     0.0000
      4  CAG        7.6260   -9.4380   22.2870 C.2   1309  23N1309     0.0000
      5  CAI        8.7860  -10.1290   22.6290 C.2   1309  23N1309     0.0000
      6  CAM        9.7120  -10.4540   21.6420 C.2   1309  23N1309     0.0000
      7  CAJ       10.9970  -11.1850   22.0180 C.3   1309  23N1309     0.0000
      8  CAN       11.9930  -10.0560   22.3860 C.3   1309  23N1309     0.0000
      9  CAL       12.3720  -10.0180   23.8860 C.2   1309  23N1309     0.0000
     10  OAD       12.2490   -8.9020   24.4010 O.co2 1309  23N1309     0.0000
     11  OAA       12.7620  -11.0540   24.4830 O.co2 1309  23N1309     0.0000
     12  CAK       13.2130   -9.9330   21.4600 C.3   1309  23N1309     0.0000
     13  NAO       13.7850   -8.5830   21.6850 N.3   1309  23N1309     0.0000
     14  OAC       14.8050   -8.6270   22.6940 O.3   1309  23N1309     0.0000
     15  OAB       14.3580   -7.9680   20.5070 O.3   1309  23N1309     0.0000
@<TRIPOS>BOND
     1     1    15    1
     2     2     3    1
     3     3     4    2
     4     4     5    1
     5     5     6    2
     6     6     7    1
     7     7     8    1
     8     8    12    1
     9     8     9    1
    10     9    10   ar
    11     9    11   ar
    12    12    13    1
    13    13    15    1
    14    13    14    1
