@<TRIPOS>MOLECULE
4r7u_FFQ_1_ligand
   15    14     1     0     0
SMALL
NO_CHARGES


@<TRIPOS>ATOM
     1 C1         -43.8370    -9.6910   -10.7960 C.3          1 FFQ502   0.0000
     2 O1         -42.2520   -10.7970    -9.1810 O.3          1 FFQ502   0.0000
     3 P1         -41.3610    -8.6740   -10.5210 P.3          1 FFQ502   0.0000
     4 C2         -42.3990   -10.1540   -10.4740 C.3          1 FFQ502   0.0000
     5 O2         -41.0460    -8.2790   -12.0550 O.co2        1 FFQ502   0.0000
     6 C3         -43.9920    -9.3550   -12.2800 C.3          1 FFQ502   0.0000
     7 O3         -40.1290    -8.9870    -9.7490 O.co2        1 FFQ502  -1.0000
     8 O4         -42.1990    -7.5020    -9.8010 O.co2        1 FFQ502  -1.0000
     9 H1         -44.0465    -8.8772   -10.2539 H            1 FFQ502   0.0000
    10 H2         -44.4759   -10.4229   -10.5590 H            1 FFQ502   0.0000
    11 H3         -41.2979   -11.0657    -9.0489 H            1 FFQ502   0.0000
    12 H4         -42.0948   -10.7860   -11.1867 H            1 FFQ502   0.0000
    13 H5         -44.9304    -9.0591   -12.4585 H            1 FFQ502   0.0000
    14 H6         -43.3588    -8.6203   -12.5233 H            1 FFQ502   0.0000
    15 H7         -43.7882   -10.1660   -12.8284 H            1 FFQ502   0.0000
@<TRIPOS>BOND
     1    1    4       1
     2    1    6       1
     3    2    4       1
     4    3    4       1
     5    3    5      ar
     6    3    7      ar
     7    3    8      ar
     8    1    9       1
     9    1   10       1
    10    2   11       1
    11    4   12       1
    12    6   15       1
    13    6   13       1
    14    6   14       1
@<TRIPOS>SUBSTRUCTURE
     1 FFQ502      1 GROUP             4 A     FFQ     0 **** FFQ A 502
