@<TRIPOS>MOLECULE
2j0v_GDP_4_ligand
   41    43     1     0     0
SMALL
NO_CHARGES


@<TRIPOS>ATOM
     1 PB          63.2780    13.9040   119.1770 P.3          1 GDP1180   0.0000
     2 O1B         63.5140    12.5530   118.5890 O.co2        1 GDP1180   0.0000
     3 O2B         63.1640    15.0210   118.1550 O.co2        1 GDP1180  -1.0000
     4 O3B         64.3410    14.2440   120.2020 O.co2        1 GDP1180  -1.0000
     5 O3A         61.8550    13.7780   119.9330 O.3          1 GDP1180   0.0000
     6 PA          61.3210    14.3040   121.3360 P.3          1 GDP1180   0.0000
     7 O1A         61.9100    13.5690   122.4800 O.co2        1 GDP1180   0.0000
     8 O2A         61.5520    15.7760   121.3680 O.co2        1 GDP1180  -1.0000
     9 O5'         59.7490    13.9350   121.2050 O.3          1 GDP1180   0.0000
    10 C5'         59.0050    14.5420   120.1170 C.3          1 GDP1180   0.0000
    11 C4'         57.5240    14.5630   120.4660 C.3          1 GDP1180   0.0000
    12 O4'         57.0360    13.2180   120.6820 O.3          1 GDP1180   0.0000
    13 C3'         57.2500    15.3370   121.7490 C.3          1 GDP1180   0.0000
    14 O3'         55.9910    15.9940   121.5930 O.3          1 GDP1180   0.0000
    15 C2'         57.0850    14.2840   122.8180 C.3          1 GDP1180   0.0000
    16 O2'         56.1680    14.7480   123.8080 O.3          1 GDP1180   0.0000
    17 C1'         56.5030    13.1280   121.9860 C.3          1 GDP1180   0.0000
    18 N9          56.9370    11.8410   122.5140 N.pl3        1 GDP1180   0.0000
    19 C8          58.2100    11.4480   122.7270 C.2          1 GDP1180   0.0000
    20 N7          58.2030    10.1920   123.2670 N.2          1 GDP1180   1.0000
    21 C5          56.9120     9.7630   123.3210 C.2          1 GDP1180   0.0000
    22 C6          56.2120     8.5330   123.7560 C.2          1 GDP1180   0.0000
    23 O6          56.8080     7.5250   124.2220 O.2          1 GDP1180   0.0000
    24 N1          54.8930     8.5210   123.6900 N.pl3        1 GDP1180   0.0000
    25 C2          54.1540     9.5570   123.2150 C.2          1 GDP1180   0.0000
    26 N2          52.7990     9.3850   123.2080 N.pl3        1 GDP1180   0.0000
    27 N3          54.7060    10.7490   122.8170 N.2          1 GDP1180   0.0000
    28 C4          56.0690    10.8710   122.8430 C.2          1 GDP1180   0.0000
    29 H5'1        59.1432    14.0105   119.2813 H            1 GDP1180   0.0000
    30 H5'2        59.3272    15.4778   119.9740 H            1 GDP1180   0.0000
    31 H4'         57.0145    14.9813   119.7140 H            1 GDP1180   0.0000
    32 H3'         57.9852    15.9796   121.9646 H            1 GDP1180   0.0000
    33 H5          55.3601    15.6780   122.3016 H            1 GDP1180   0.0000
    34 H2'         57.9645    14.0349   123.2235 H            1 GDP1180   0.0000
    35 H7          55.3879    14.1244   123.8581 H            1 GDP1180   0.0000
    36 H1'         55.5046    13.1797   121.9622 H            1 GDP1180   0.0000
    37 H9          59.0265    11.9880   122.5229 H            1 GDP1180   0.0000
    38 H10         54.4117     7.7039   124.0073 H            1 GDP1180   0.0000
    39 H11         52.2042    10.1141   122.8694 H            1 GDP1180   0.0000
    40 H12         52.4018     8.5300   123.5415 H            1 GDP1180   0.0000
    41 H13         59.0058     9.6782   123.5695 H            1 GDP1180   0.0000
@<TRIPOS>BOND
     1    1    2      ar
     2    1    3      ar
     3    1    4      ar
     4    1    5       1
     5    5    6       1
     6    6    7      ar
     7    6    8      ar
     8    6    9       1
     9    9   10       1
    10   10   11       1
    11   11   12       1
    12   11   13       1
    13   12   17       1
    14   13   14       1
    15   13   15       1
    16   15   16       1
    17   15   17       1
    18   17   18       1
    19   18   19       1
    20   18   28       1
    21   19   20       2
    22   20   21       1
    23   21   22       1
    24   21   28       2
    25   22   23       2
    26   22   24       1
    27   24   25       1
    28   25   26       1
    29   25   27       2
    30   27   28       1
    31   26   40       1
    32   26   39       1
    33   24   38       1
    34   10   29       1
    35   10   30       1
    36   11   31       1
    37   13   32       1
    38   14   33       1
    39   15   34       1
    40   16   35       1
    41   17   36       1
    42   19   37       1
    43   20   41       1
@<TRIPOS>SUBSTRUCTURE
     1 GDP1180     1 GROUP             4 D     GDP     0 **** GDP D1180
