@<TRIPOS>MOLECULE
4ea2_RWZ_1_ligand
   64    66     1     0     0
SMALL
NO_CHARGES


@<TRIPOS>ATOM
     1 CAA        -28.1770   -10.5540    -7.8900 C.3          1 RWZ301   0.0000
     2 CAB        -26.1730   -11.0390    -6.2920 C.3          1 RWZ301   0.0000
     3 CAC        -24.6530   -15.7330    -8.8150 C.3          1 RWZ301   0.0000
     4 CAD        -26.7430   -12.6270    -8.0540 C.2          1 RWZ301   0.0000
     5 CAE        -22.4240   -14.6930    -8.8840 C.2          1 RWZ301   0.0000
     6 CAF        -25.7230   -13.4570    -7.6630 C.3          1 RWZ301   0.0000
     7 CAG        -21.4680   -13.7220    -8.8200 C.3          1 RWZ301   0.0000
     8 CAH        -20.1210   -15.6310    -8.2750 C.3          1 RWZ301   0.0000
     9 CAI        -21.3150   -16.3980    -7.8140 C.3          1 RWZ301   0.0000
    10 CAJ        -24.4350   -13.2160    -8.4240 C.3          1 RWZ301   0.0000
    11 CAK        -23.1400   -20.2180    -5.9240 C.3          1 RWZ301   0.0000
    12 CAL        -21.7110   -19.9430    -7.9030 C.3          1 RWZ301   0.0000
    13 CAM        -24.1020   -20.0310    -8.1940 C.3          1 RWZ301   0.0000
    14 CAN        -21.9710   -18.0740    -6.2480 C.3          1 RWZ301   0.0000
    15 CAO        -24.3890   -18.2130    -6.4920 C.3          1 RWZ301   0.0000
    16 NAP        -20.3520   -14.2200    -8.0310 N.4          1 RWZ301   1.0000
    17 NAQ        -21.6980   -17.2760    -8.8970 N.4          1 RWZ301   1.0000
    18 CAR        -27.0420   -11.4490    -7.4370 C.2          1 RWZ301   0.0000
    19 CAS        -23.7750   -14.5320    -8.7170 C.2          1 RWZ301   0.0000
    20 CAT        -21.8840   -19.5830    -6.4350 C.3          1 RWZ301   0.0000
    21 CAU        -24.2990   -19.6980    -6.7290 C.3          1 RWZ301   0.0000
    22 CAV        -22.8530   -19.3720    -8.7100 C.3          1 RWZ301   0.0000
    23 CAW        -23.1450   -17.5450    -7.0310 C.3          1 RWZ301   0.0000
    24 CAX        -22.9470   -17.8780    -8.4970 C.3          1 RWZ301   0.0000
    25 HAA1       -28.6501   -10.9801    -8.6612 H            1 RWZ301   0.0000
    26 HAA2       -28.8201   -10.4234    -7.1354 H            1 RWZ301   0.0000
    27 HAA3       -27.8102    -9.6676    -8.1725 H            1 RWZ301   0.0000
    28 HAB1       -25.4807   -11.7423    -6.1304 H            1 RWZ301   0.0000
    29 HAB2       -25.7235   -10.1723    -6.5083 H            1 RWZ301   0.0000
    30 HAB3       -26.7334   -10.9281    -5.4712 H            1 RWZ301   0.0000
    31 HAC1       -25.6051   -15.4624    -8.6725 H            1 RWZ301   0.0000
    32 HAC2       -24.5554   -16.1442    -9.7213 H            1 RWZ301   0.0000
    33 HAC3       -24.3874   -16.3980    -8.1170 H            1 RWZ301   0.0000
    34 HAD        -27.2998   -12.9024    -8.8377 H            1 RWZ301   0.0000
    35 HAE        -22.1051   -15.6217    -9.0730 H            1 RWZ301   0.0000
    36 HAF1       -26.0083   -14.4038    -7.8121 H            1 RWZ301   0.0000
    37 HAF2       -25.5493   -13.3107    -6.6891 H            1 RWZ301   0.0000
    38 HAG1       -21.8474   -12.9038    -8.3879 H            1 RWZ301   0.0000
    39 HAG2       -21.1544   -13.4968    -9.7425 H            1 RWZ301   0.0000
    40 HAH1       -19.9794   -15.7846    -9.2529 H            1 RWZ301   0.0000
    41 HAH2       -19.3122   -15.9319    -7.7698 H            1 RWZ301   0.0000
    42 HAI1       -22.0638   -15.7711    -7.5991 H            1 RWZ301   0.0000
    43 HAI2       -21.0859   -16.9344    -7.0018 H            1 RWZ301   0.0000
    44 HAJ1       -23.8220   -12.6510    -7.8718 H            1 RWZ301   0.0000
    45 HAJ2       -24.6380   -12.7461    -9.2830 H            1 RWZ301   0.0000
    46 HAK1       -23.2675   -19.9853    -4.9598 H            1 RWZ301   0.0000
    47 HAK2       -23.0798   -21.2114    -6.0220 H            1 RWZ301   0.0000
    48 HAL1       -21.7004   -20.9381    -8.0014 H            1 RWZ301   0.0000
    49 HAL2       -20.8474   -19.5657    -8.2374 H            1 RWZ301   0.0000
    50 HAM1       -24.8891   -19.7031    -8.7165 H            1 RWZ301   0.0000
    51 HAM2       -24.0211   -21.0221    -8.3000 H            1 RWZ301   0.0000
    52 HAN1       -21.1291   -17.6469    -6.5779 H            1 RWZ301   0.0000
    53 HAN2       -22.0936   -17.8636    -5.2781 H            1 RWZ301   0.0000
    54 HAO1       -24.4652   -18.0353    -5.5109 H            1 RWZ301   0.0000
    55 HAO2       -25.1937   -17.8481    -6.9603 H            1 RWZ301   0.0000
    56 HAP1       -20.5538   -14.0861    -7.0608 H            1 RWZ301   0.0000
    57 HAQ1       -21.0017   -17.9801    -9.0365 H            1 RWZ301   0.0000
    58 HAT        -21.1041   -19.9338    -5.9166 H            1 RWZ301   0.0000
    59 HAU        -25.1406   -20.1313    -6.4064 H            1 RWZ301   0.0000
    60 HAV        -22.7283   -19.5769    -9.6808 H            1 RWZ301   0.0000
    61 HAW        -23.2132   -16.5543    -6.9137 H            1 RWZ301   0.0000
    62 HAX        -23.6983   -17.5010    -9.0387 H            1 RWZ301   0.0000
    63 HAP2       -19.5278   -13.7084    -8.2737 H            1 RWZ301   0.0000
    64 HAQ2       -21.8183   -16.7542    -9.7415 H            1 RWZ301   0.0000
@<TRIPOS>BOND
     1    1   18       1
     2    2   18       1
     3    3   19       1
     4    4    6       1
     5    4   18       2
     6    5    7       1
     7    5   19       2
     8    6   10       1
     9    7   16       1
    10    8    9       1
    11    8   16       1
    12    9   17       1
    13   10   19       1
    14   11   20       1
    15   11   21       1
    16   12   20       1
    17   12   22       1
    18   13   21       1
    19   13   22       1
    20   14   20       1
    21   14   23       1
    22   15   21       1
    23   15   23       1
    24   17   24       1
    25   22   24       1
    26   23   24       1
    27    1   25       1
    28    1   26       1
    29    1   27       1
    30    2   28       1
    31    2   29       1
    32    2   30       1
    33    3   31       1
    34    3   32       1
    35    3   33       1
    36    4   34       1
    37    5   35       1
    38    6   36       1
    39    6   37       1
    40    7   38       1
    41    7   39       1
    42    8   40       1
    43    8   41       1
    44    9   42       1
    45    9   43       1
    46   10   44       1
    47   10   45       1
    48   11   46       1
    49   11   47       1
    50   12   48       1
    51   12   49       1
    52   13   50       1
    53   13   51       1
    54   14   52       1
    55   14   53       1
    56   15   54       1
    57   15   55       1
    58   16   56       1
    59   17   57       1
    60   20   58       1
    61   21   59       1
    62   22   60       1
    63   23   61       1
    64   24   62       1
    65   16   63       1
    66   17   64       1
@<TRIPOS>SUBSTRUCTURE
     1 RWZ301      1 GROUP             4 A     RWZ     0 **** RWZ A 301
