@<TRIPOS>MOLECULE
4ead_0NP_1_ligand
   29    30     1     0     0
SMALL
NO_CHARGES


@<TRIPOS>ATOM
     1 C2          30.5850   -14.5900    -3.6540 C.2          1 0NP501   0.0000
     2 O2          29.3560   -14.5070    -3.8390 O.2          1 0NP501   0.0000
     3 C6          32.7270   -13.5730    -3.7450 C.2          1 0NP501   0.0000
     4 N19         29.1070    -7.5610    -3.3290 N.2          1 0NP501  -1.0000
     5 N18         29.5400    -8.5110    -4.0300 N.1          1 0NP501   1.0000
     6 N3'         29.9580    -9.4800    -4.7570 N.2          1 0NP501   0.0000
     7 C3'         31.3370    -9.9350    -4.7200 C.3          1 0NP501   0.0000
     8 C4'         31.5030   -10.6580    -6.0440 C.3          1 0NP501   0.0000
     9 C5'         32.9080   -10.4890    -6.6080 C.3          1 0NP501   0.0000
    10 O5'         33.8740   -10.6950    -5.5750 O.3          1 0NP501   0.0000
    11 O4'         31.2290   -12.0440    -5.8060 O.3          1 0NP501   0.0000
    12 C2'         31.3400   -11.0400    -3.6920 C.3          1 0NP501   0.0000
    13 F2'         30.5240   -10.7230    -2.6480 F            1 0NP501   0.0000
    14 C1'         30.8260   -12.2490    -4.4550 C.3          1 0NP501   0.0000
    15 N1          31.4120   -13.4850    -3.9410 N.pl3        1 0NP501   0.0000
    16 N3          31.1130   -15.7210    -3.1820 N.pl3        1 0NP501   0.0000
    17 C5          33.2660   -14.7520    -3.2560 C.2          1 0NP501   0.0000
    18 C4          32.4300   -15.8240    -2.9780 C.2          1 0NP501   0.0000
    19 O4          32.9120   -16.8850    -2.5350 O.2          1 0NP501   0.0000
    20 H1          33.3202   -12.7943    -3.9492 H            1 0NP501   0.0000
    21 H3'         32.0082    -9.2124    -4.5546 H            1 0NP501   0.0000
    22 H4'         30.8394   -10.2992    -6.7005 H            1 0NP501   0.0000
    23 H5'1        33.0085    -9.5649    -6.9767 H            1 0NP501   0.0000
    24 H5'2        33.0551   -11.1568    -7.3377 H            1 0NP501   0.0000
    25 H5'         34.4697   -11.4588    -5.8232 H            1 0NP501   0.0000
    26 H2'         32.2705   -11.2066    -3.3658 H            1 0NP501   0.0000
    27 H1'         29.8286   -12.2924    -4.3974 H            1 0NP501   0.0000
    28 H9          30.5179   -16.4986    -2.9790 H            1 0NP501   0.0000
    29 H10         34.2514   -14.8299    -3.1044 H            1 0NP501   0.0000
@<TRIPOS>BOND
     1    1    2       2
     2    1   15       1
     3    1   16       1
     4    3   15       1
     5    3   17       2
     6    4    5       2
     7    5    6       2
     8    6    7       1
     9    7    8       1
    10    7   12       1
    11    8    9       1
    12    8   11       1
    13    9   10       1
    14   11   14       1
    15   12   13       1
    16   12   14       1
    17   14   15       1
    18   16   18       1
    19   17   18       1
    20   18   19       2
    21    3   20       1
    22    7   21       1
    23    8   22       1
    24    9   23       1
    25    9   24       1
    26   10   25       1
    27   12   26       1
    28   14   27       1
    29   16   28       1
    30   17   29       1
@<TRIPOS>SUBSTRUCTURE
     1 0NP501      1 GROUP             4 A     0NP     0 **** 0NP A 501
