@<TRIPOS>MOLECULE
4tnb_SGV_1_ligand
   37    39     1     0     0
SMALL
NO_CHARGES


@<TRIPOS>ATOM
     1 N1          27.6540   -31.0330    26.9540 N.ar         1 SGV601   0.0000
     2 C2          28.4830   -31.2760    28.0230 C.ar         1 SGV601   0.0000
     3 N3          28.9230   -32.5560    28.2600 N.ar         1 SGV601   0.0000
     4 C4          28.5260   -33.5700    27.4270 C.ar         1 SGV601   0.0000
     5 C5          27.7110   -33.3250    26.3650 C.ar         1 SGV601   0.0000
     6 C6          27.2660   -32.0340    26.1340 C.ar         1 SGV601   0.0000
     7 N6          26.4500   -31.2580    25.2280 N.pl3        1 SGV601   0.0000
     8 C7          27.4830   -34.5220    25.7120 C.2          1 SGV601   0.0000
     9 C8          28.1690   -35.5120    26.3800 C.2          1 SGV601   0.0000
    10 N9          28.8270   -34.9260    27.4110 N.pl3        1 SGV601   0.0000
    11 C1'         29.6460   -35.5740    28.4520 C.3          1 SGV601   0.0000
    12 C10         26.6540   -34.9280    24.4630 C.2          1 SGV601   0.0000
    13 N11         26.8740   -36.2550    23.8490 N.am         1 SGV601   0.0000
    14 O12         25.8210   -34.1540    23.9960 O.2          1 SGV601   0.0000
    15 C2'         28.7670   -35.8870    29.6610 C.3          1 SGV601   0.0000
    16 O2'         29.5950   -35.9780    30.8080 O.3          1 SGV601   0.0000
    17 C3'         28.2410   -37.2520    29.2710 C.3          1 SGV601   0.0000
    18 O3'         27.6860   -37.9740    30.3510 O.3          1 SGV601   0.0000
    19 C4'         29.4780   -37.9020    28.6720 C.3          1 SGV601   0.0000
    20 O4'         30.1260   -36.8100    27.9610 O.3          1 SGV601   0.0000
    21 C5'         29.2450   -39.0620    27.7370 C.3          1 SGV601   0.0000
    22 O5'         28.6220   -38.6320    26.5380 O.3          1 SGV601   0.0000
    23 H1          28.7637   -30.5273    28.6235 H            1 SGV601   0.0000
    24 H2          25.9879   -31.7061    24.4627 H            1 SGV601   0.0000
    25 H3          26.3475   -30.2729    25.3664 H            1 SGV601   0.0000
    26 H4          28.1799   -36.4845    26.1475 H            1 SGV601   0.0000
    27 H1'         30.4078   -34.9827    28.7167 H            1 SGV601   0.0000
    28 H6          26.3461   -36.5274    23.0445 H            1 SGV601   0.0000
    29 H7          27.5506   -36.8800    24.2382 H            1 SGV601   0.0000
    30 H2'         28.0326   -35.2183    29.7773 H            1 SGV601   0.0000
    31 H9          30.0690   -35.1085    30.9468 H            1 SGV601   0.0000
    32 H3'         27.5485   -37.1451    28.5575 H            1 SGV601   0.0000
    33 H11         27.3594   -38.8615    30.0259 H            1 SGV601   0.0000
    34 H4'         30.0760   -38.2023    29.4151 H            1 SGV601   0.0000
    35 H5'1        28.6568   -39.7328    28.1886 H            1 SGV601   0.0000
    36 H5'2        30.1237   -39.4848    27.5154 H            1 SGV601   0.0000
    37 H5'         27.7437   -39.0984    26.4329 H            1 SGV601   0.0000
@<TRIPOS>BOND
     1    1    2      ar
     2    1    6      ar
     3    2    3      ar
     4    3    4      ar
     5    4    5      ar
     6    4   10       1
     7    5    6      ar
     8    5    8       1
     9    6    7       1
    10    8    9       2
    11    8   12       1
    12    9   10       1
    13   10   11       1
    14   11   15       1
    15   11   20       1
    16   12   13      am
    17   12   14       2
    18   15   16       1
    19   15   17       1
    20   17   18       1
    21   17   19       1
    22   19   20       1
    23   19   21       1
    24   21   22       1
    25    2   23       1
    26    7   24       1
    27    7   25       1
    28    9   26       1
    29   11   27       1
    30   13   28       1
    31   13   29       1
    32   15   30       1
    33   16   31       1
    34   17   32       1
    35   18   33       1
    36   19   34       1
    37   21   35       1
    38   21   36       1
    39   22   37       1
@<TRIPOS>SUBSTRUCTURE
     1 SGV601      1 GROUP             4 A     SGV     0 **** SGV A 601
