@<TRIPOS>MOLECULE
2zu8_GDD_2_ligand
   62    65     1     0     0
SMALL
NO_CHARGES


@<TRIPOS>ATOM
     1 N2           0.6630     2.3180     5.0710 N.pl3        1 GDD395   0.0000
     2 C2           0.1180     1.1110     5.1620 C.2          1 GDD395   0.0000
     3 N1           0.2770     0.3500     6.3270 N.pl3        1 GDD395   0.0000
     4 N3          -0.5810     0.6240     4.1210 N.2          1 GDD395   0.0000
     5 C4          -1.1380    -0.5840     4.1690 C.2          1 GDD395   0.0000
     6 C5          -1.0110    -1.3880     5.3030 C.2          1 GDD395   0.0000
     7 C6          -0.2950    -0.9240     6.3890 C.2          1 GDD395   0.0000
     8 O6          -0.0980    -1.6570     7.3670 O.2          1 GDD395   0.0000
     9 N7          -1.6870    -2.5100     5.0710 N.2          1 GDD395   0.0000
    10 C8          -2.2130    -2.4270     3.8530 C.2          1 GDD395   0.0000
    11 N9          -1.8850    -1.2630     3.2970 N.pl3        1 GDD395   0.0000
    12 C1'         -2.2640    -0.8230     1.9380 C.3          1 GDD395   0.0000
    13 C2'         -2.0850    -1.9720     0.9470 C.3          1 GDD395   0.0000
    14 O2'         -0.6990    -2.0850     0.6120 O.3          1 GDD395   0.0000
    15 C3'         -2.9140    -1.4390    -0.2190 C.3          1 GDD395   0.0000
    16 O3'         -2.1920    -0.4570    -0.9680 O.3          1 GDD395   0.0000
    17 C4'         -4.1080    -0.8200     0.5110 C.3          1 GDD395   0.0000
    18 O4'         -3.6560    -0.4710     1.8350 O.3          1 GDD395   0.0000
    19 C5'         -5.2280    -1.8530     0.6630 C.3          1 GDD395   0.0000
    20 O5'         -4.8270    -2.9200     1.5260 O.3          1 GDD395   0.0000
    21 PA          -4.9550    -4.4570     1.0710 P.3          1 GDD395   0.0000
    22 O1A         -4.2780    -5.2600     2.1120 O.co2        1 GDD395   0.0000
    23 O2A         -4.4560    -4.5550    -0.3190 O.co2        1 GDD395  -1.0000
    24 O3A         -6.5410    -4.7400     1.1280 O.3          1 GDD395   0.0000
    25 PB          -7.4040    -5.0270    -0.2020 P.3          1 GDD395   0.0000
    26 O2B         -6.7440    -4.3510    -1.3430 O.co2        1 GDD395   0.0000
    27 O3B         -7.6680    -6.4790    -0.2950 O.co2        1 GDD395  -1.0000
    28 O1B         -8.7910    -4.2670     0.0790 O.3          1 GDD395   0.0000
    29 C11         -8.7890    -2.8490    -0.1200 C.3          1 GDD395   0.0000
    30 O51         -9.9800    -2.4720    -0.8250 O.3          1 GDD395   0.0000
    31 C51        -11.1690    -2.8730    -0.1290 C.3          1 GDD395   0.0000
    32 C61        -12.3250    -2.3830    -1.0040 C.3          1 GDD395   0.0000
    33 O6A        -13.5700    -2.8840    -0.5120 O.3          1 GDD395   0.0000
    34 C21         -8.7020    -2.1590     1.2430 C.3          1 GDD395   0.0000
    35 O21         -8.6550    -0.7440     1.0430 O.3          1 GDD395   0.0000
    36 C31         -9.9510    -2.5270     2.0450 C.3          1 GDD395   0.0000
    37 O31         -9.9530    -1.8290     3.2940 O.3          1 GDD395   0.0000
    38 C41        -11.2070    -2.1850     1.2390 C.3          1 GDD395   0.0000
    39 O41        -12.3560    -2.6240     1.9690 O.3          1 GDD395   0.0000
    40 H1           0.5467     2.8576     4.2371 H            1 GDD395   0.0000
    41 H2           1.1899     2.6877     5.8363 H            1 GDD395   0.0000
    42 H3           0.7924     0.7128     7.1034 H            1 GDD395   0.0000
    43 H4          -2.7718    -3.1337     3.4191 H            1 GDD395   0.0000
    44 H1'         -1.6969    -0.0467     1.6627 H            1 GDD395   0.0000
    45 H2'         -2.4529    -2.8310     1.3030 H            1 GDD395   0.0000
    46 H7          -0.5730    -2.8354    -0.0368 H            1 GDD395   0.0000
    47 H3'         -3.2116    -2.1872    -0.8120 H            1 GDD395   0.0000
    48 H9          -1.9549     0.3095    -0.3711 H            1 GDD395   0.0000
    49 H4'         -4.4378    -0.0103     0.0255 H            1 GDD395   0.0000
    50 H5'1        -5.4523    -2.2269    -0.2369 H            1 GDD395   0.0000
    51 H5'2        -6.0350    -1.4060     1.0489 H            1 GDD395   0.0000
    52 H13         -7.9908    -2.5961    -0.6667 H            1 GDD395   0.0000
    53 H14        -11.2002    -3.8672    -0.0259 H            1 GDD395   0.0000
    54 H15        -12.1879    -2.7041    -1.9411 H            1 GDD395   0.0000
    55 H16        -12.3451    -1.3833    -0.9938 H            1 GDD395   0.0000
    56 H6A        -13.9511    -2.2383     0.1497 H            1 GDD395   0.0000
    57 H18         -7.8822    -2.4630     1.7283 H            1 GDD395   0.0000
    58 H19         -8.2133    -0.5455     0.1680 H            1 GDD395   0.0000
    59 H20         -9.9408    -3.5106     2.2249 H            1 GDD395   0.0000
    60 H21        -10.7723    -2.0749     3.8120 H            1 GDD395   0.0000
    61 H22        -11.2567    -1.1947     1.1093 H            1 GDD395   0.0000
    62 H23        -13.1280    -2.0203     1.7701 H            1 GDD395   0.0000
@<TRIPOS>BOND
     1    1    2       1
     2    2    3       1
     3    2    4       2
     4    3    7       1
     5    4    5       1
     6    5    6       2
     7    5   11       1
     8    6    7       1
     9    6    9       1
    10    7    8       2
    11    9   10       2
    12   10   11       1
    13   11   12       1
    14   12   13       1
    15   12   18       1
    16   13   14       1
    17   13   15       1
    18   15   16       1
    19   15   17       1
    20   17   18       1
    21   17   19       1
    22   19   20       1
    23   20   21       1
    24   21   22      ar
    25   21   23      ar
    26   21   24       1
    27   24   25       1
    28   25   26      ar
    29   25   27      ar
    30   25   28       1
    31   28   29       1
    32   29   30       1
    33   29   34       1
    34   30   31       1
    35   31   32       1
    36   31   38       1
    37   32   33       1
    38   34   35       1
    39   34   36       1
    40   36   37       1
    41   36   38       1
    42   38   39       1
    43    1   40       1
    44    1   41       1
    45    3   42       1
    46   10   43       1
    47   12   44       1
    48   13   45       1
    49   14   46       1
    50   15   47       1
    51   16   48       1
    52   17   49       1
    53   19   50       1
    54   19   51       1
    55   39   62       1
    56   38   61       1
    57   29   52       1
    58   31   53       1
    59   32   54       1
    60   32   55       1
    61   33   56       1
    62   34   57       1
    63   35   58       1
    64   36   59       1
    65   37   60       1
@<TRIPOS>SUBSTRUCTURE
     1 GDD395      1 GROUP             4 B     GDD     0 **** GDD B 395
