@<TRIPOS>MOLECULE
1mx5_HTQ_3_ligand
   42    44     1     0     0
SMALL
NO_CHARGES


@<TRIPOS>ATOM
     1 C1          -1.5940   -23.8640   114.3250 C.3          1 HTQ313   0.0000
     2 C2          -1.4920   -25.0270   113.2560 C.3          1 HTQ313   0.0000
     3 C3          -0.4920   -24.7080   112.0570 C.3          1 HTQ313   0.0000
     4 C4          -0.3220   -23.1520   111.7670 C.3          1 HTQ313   0.0000
     5 C5          -0.6230   -22.2080   113.0030 C.3          1 HTQ313   0.0000
     6 C6           0.3850   -22.3940   114.1720 C.3          1 HTQ313   0.0000
     7 C7          -0.2340   -23.5350   115.0240 C.3          1 HTQ313   0.0000
     8 N8          -1.9240   -22.6210   113.5890 N.4          1 HTQ313   1.0000
     9 C9          -2.6170   -21.5570   114.4220 C.3          1 HTQ313   0.0000
    10 O10         -0.8590   -25.4080   110.8120 O.3          1 HTQ313   0.0000
    11 C11         -2.1540   -25.5370   110.2620 C.2          1 HTQ313   0.0000
    12 O12         -3.2050   -25.0880   110.7330 O.2          1 HTQ313   0.0000
    13 C13         -2.1510   -26.3280   108.9380 C.3          1 HTQ313   0.0000
    14 C14         -0.7170   -26.5210   108.3560 C.ar         1 HTQ313   0.0000
    15 C15         -0.1780   -25.5460   107.4620 C.ar         1 HTQ313   0.0000
    16 C16          0.0850   -27.6600   108.6890 C.ar         1 HTQ313   0.0000
    17 C17          1.1250   -25.7090   106.9180 C.ar         1 HTQ313   0.0000
    18 C18          1.3850   -27.8180   108.1430 C.ar         1 HTQ313   0.0000
    19 C19          1.9000   -26.8430   107.2580 C.ar         1 HTQ313   0.0000
    20 O20         -2.8050   -27.5970   109.1440 O.3          1 HTQ313   0.0000
    21 H1          -2.2989   -24.0697   115.0039 H            1 HTQ313   0.0000
    22 H2          -2.4025   -25.1858   112.8742 H            1 HTQ313   0.0000
    23 H3          -1.1758   -25.8549   113.7192 H            1 HTQ313   0.0000
    24 H4           0.4065   -25.0522   112.3293 H            1 HTQ313   0.0000
    25 H5          -0.9467   -22.9036   111.0267 H            1 HTQ313   0.0000
    26 H6           0.6210   -22.9913   111.4754 H            1 HTQ313   0.0000
    27 H7          -0.6549   -21.2509   112.7150 H            1 HTQ313   0.0000
    28 H8           0.4662   -21.5539   114.7083 H            1 HTQ313   0.0000
    29 H9           1.2857   -22.6571   113.8262 H            1 HTQ313   0.0000
    30 H10          0.3637   -24.3367   115.0264 H            1 HTQ313   0.0000
    31 H11         -0.3860   -23.2298   115.9641 H            1 HTQ313   0.0000
    32 H12         -2.8028   -20.7563   113.8524 H            1 HTQ313   0.0000
    33 H13         -3.4782   -21.9204   114.7773 H            1 HTQ313   0.0000
    34 H14         -2.0263   -21.2937   115.1847 H            1 HTQ313   0.0000
    35 H15         -2.6866   -25.8112   108.2702 H            1 HTQ313   0.0000
    36 H16         -0.7213   -24.7430   107.2171 H            1 HTQ313   0.0000
    37 H17         -0.2757   -28.3523   109.3140 H            1 HTQ313   0.0000
    38 H18          1.4948   -25.0209   106.2937 H            1 HTQ313   0.0000
    39 H19          1.9358   -28.6172   108.3836 H            1 HTQ313   0.0000
    40 H20          2.8152   -26.9552   106.8710 H            1 HTQ313   0.0000
    41 H21         -3.7829   -27.5021   108.9578 H            1 HTQ313   0.0000
    42 H22         -2.5347   -22.8650   112.8357 H            1 HTQ313   0.0000
@<TRIPOS>BOND
     1    1    2       1
     2    1    7       1
     3    1    8       1
     4    2    3       1
     5    3    4       1
     6    3   10       1
     7    4    5       1
     8    5    6       1
     9    5    8       1
    10    6    7       1
    11    8    9       1
    12   10   11       1
    13   11   12       2
    14   11   13       1
    15   13   14       1
    16   13   20       1
    17   14   15      ar
    18   14   16      ar
    19   15   17      ar
    20   16   18      ar
    21   17   19      ar
    22   18   19      ar
    23    1   21       1
    24    2   22       1
    25    2   23       1
    26    3   24       1
    27    4   25       1
    28    4   26       1
    29    5   27       1
    30    6   28       1
    31    6   29       1
    32    7   30       1
    33    7   31       1
    34    9   32       1
    35    9   33       1
    36    9   34       1
    37   13   35       1
    38   15   36       1
    39   16   37       1
    40   17   38       1
    41   18   39       1
    42   19   40       1
    43   20   41       1
    44    8   42       1
@<TRIPOS>SUBSTRUCTURE
     1 HTQ313      1 GROUP             4 C     HTQ     0 **** HTQ C 313
