@<TRIPOS>MOLECULE
1n6l_GTP_1_ligand
   44    46     1     0     0
SMALL
NO_CHARGES


@<TRIPOS>ATOM
     1 PG           1.2950    -1.2920    43.2080 P.3          1 GTP200   0.0000
     2 O1G          0.8880    -2.1060    44.3810 O.co2        1 GTP200   0.0000
     3 O2G          1.2940     0.1580    43.4680 O.co2        1 GTP200  -1.0000
     4 O3G          0.4710    -1.6520    42.0020 O.co2        1 GTP200  -1.0000
     5 O3B          2.8390    -1.7440    42.8770 O.3          1 GTP200   0.0000
     6 PB           3.7840    -1.1420    41.7160 P.3          1 GTP200   0.0000
     7 O1B          3.5320    -1.8230    40.3790 O.co2        1 GTP200   0.0000
     8 O2B          3.6740     0.3200    41.7140 O.co2        1 GTP200  -1.0000
     9 O3A          5.2630    -1.5910    42.1920 O.3          1 GTP200   0.0000
    10 PA           6.4020    -0.6400    42.8610 P.3          1 GTP200   0.0000
    11 O1A          6.8750     0.4070    41.9530 O.co2        1 GTP200   0.0000
    12 O2A          5.8240    -0.2190    44.1760 O.co2        1 GTP200  -1.0000
    13 O5'          7.5280    -1.7230    43.0290 O.3          1 GTP200   0.0000
    14 C5'          7.3560    -2.8880    43.8380 C.3          1 GTP200   0.0000
    15 C4'          8.7300    -3.4220    44.2940 C.3          1 GTP200   0.0000
    16 O4'          9.4880    -3.8090    43.1120 O.3          1 GTP200   0.0000
    17 C3'          9.6010    -2.4290    45.0070 C.3          1 GTP200   0.0000
    18 O3'         10.3310    -3.1040    46.0660 O.3          1 GTP200   0.0000
    19 C2'         10.5610    -1.9280    43.9630 C.3          1 GTP200   0.0000
    20 O2'         11.7860    -1.4490    44.4680 O.3          1 GTP200   0.0000
    21 C1'         10.7080    -3.1340    43.0990 C.3          1 GTP200   0.0000
    22 N9          11.0100    -2.8360    41.7020 N.pl3        1 GTP200   0.0000
    23 C8          10.3340    -2.0130    40.8260 C.2          1 GTP200   0.0000
    24 N7          10.8520    -1.9480    39.5990 N.2          1 GTP200   0.0000
    25 C5          11.9450    -2.8040    39.6990 C.2          1 GTP200   0.0000
    26 C6          12.9100    -3.1700    38.7260 C.2          1 GTP200   0.0000
    27 O6          13.0060    -2.7980    37.5530 O.2          1 GTP200   0.0000
    28 N1          13.8780    -4.0970    39.2100 N.pl3        1 GTP200   0.0000
    29 C2          13.9200    -4.6210    40.5140 C.2          1 GTP200   0.0000
    30 N2          14.8810    -5.4800    40.8160 N.pl3        1 GTP200   0.0000
    31 N3          12.9970    -4.2510    41.4450 N.2          1 GTP200   0.0000
    32 C4          12.0500    -3.3570    40.9700 C.2          1 GTP200   0.0000
    33 H5'1         6.8863    -3.5933    43.3071 H            1 GTP200   0.0000
    34 H5'2         6.8080    -2.6552    44.6414 H            1 GTP200   0.0000
    35 H4'          8.5961    -4.2230    44.8775 H            1 GTP200   0.0000
    36 H3'          9.0540    -1.6776    45.3761 H            1 GTP200   0.0000
    37 H5          10.9123    -2.4446    46.5428 H            1 GTP200   0.0000
    38 H2'         10.1195    -1.2017    43.4362 H            1 GTP200   0.0000
    39 H7          11.7068    -0.4714    44.6629 H            1 GTP200   0.0000
    40 H1'         11.4204    -3.7271    43.4741 H            1 GTP200   0.0000
    41 H9           9.5159    -1.5027    41.0913 H            1 GTP200   0.0000
    42 H10         14.5847    -4.3993    38.5703 H            1 GTP200   0.0000
    43 H11         14.9339    -5.8678    41.7362 H            1 GTP200   0.0000
    44 H12         15.5540    -5.7410    40.1239 H            1 GTP200   0.0000
@<TRIPOS>BOND
     1    1    2      ar
     2    1    3      ar
     3    1    4      ar
     4    1    5       1
     5    5    6       1
     6    6    7      ar
     7    6    8      ar
     8    6    9       1
     9    9   10       1
    10   10   11      ar
    11   10   12      ar
    12   10   13       1
    13   13   14       1
    14   14   15       1
    15   15   16       1
    16   15   17       1
    17   16   21       1
    18   17   18       1
    19   17   19       1
    20   19   20       1
    21   19   21       1
    22   21   22       1
    23   22   23       1
    24   22   32       1
    25   23   24       2
    26   24   25       1
    27   25   26       1
    28   25   32       2
    29   26   27       2
    30   26   28       1
    31   28   29       1
    32   29   30       1
    33   29   31       2
    34   31   32       1
    35   30   44       1
    36   30   43       1
    37   28   42       1
    38   23   41       1
    39   14   33       1
    40   14   34       1
    41   15   35       1
    42   17   36       1
    43   18   37       1
    44   19   38       1
    45   20   39       1
    46   21   40       1
@<TRIPOS>SUBSTRUCTURE
     1 GTP200      1 GROUP             4 A     GTP     0 **** GTP A 200
