@<TRIPOS>MOLECULE
3e5r_NAD_2_ligand
   68    72     1     0     0
SMALL
NO_CHARGES


@<TRIPOS>ATOM
     1 PA           3.7290    19.1250   -19.3770 P.3          1 NAD5465   0.0000
     2 O1A          4.8180    20.0550   -19.2890 O.co2        1 NAD5465   0.0000
     3 O2A          3.8280    17.6010   -19.0250 O.co2        1 NAD5465  -1.0000
     4 O5B          2.2570    19.5810   -19.8970 O.3          1 NAD5465   0.0000
     5 C5B          1.8730    19.9000   -18.5280 C.3          1 NAD5465   0.0000
     6 C4B          0.4310    20.3100   -18.1190 C.3          1 NAD5465   0.0000
     7 O4B         -0.7520    19.6680   -18.7860 O.3          1 NAD5465   0.0000
     8 C3B          0.3530    20.0980   -16.6290 C.3          1 NAD5465   0.0000
     9 O3B          0.3630    21.3230   -15.9520 O.3          1 NAD5465   0.0000
    10 C2B         -0.8950    19.3060   -16.4610 C.3          1 NAD5465   0.0000
    11 O2B         -1.5250    19.5580   -15.1900 O.3          1 NAD5465   0.0000
    12 C1B         -1.7320    19.7430   -17.6840 C.3          1 NAD5465   0.0000
    13 N9A         -2.8740    18.8610   -17.8250 N.pl3        1 NAD5465   0.0000
    14 C8A         -2.9120    17.4750   -17.7640 C.2          1 NAD5465   0.0000
    15 N7A         -4.1460    17.0550   -17.9370 N.2          1 NAD5465   0.0000
    16 C5A         -4.9440    18.1400   -18.1280 C.ar         1 NAD5465   0.0000
    17 C6A         -6.3500    18.3340   -18.3380 C.ar         1 NAD5465   0.0000
    18 N6A         -7.1990    17.2440   -18.4360 N.pl3        1 NAD5465   0.0000
    19 N1A         -6.8140    19.6050   -18.4830 N.ar         1 NAD5465   0.0000
    20 C2A         -6.0020    20.6750   -18.3870 C.ar         1 NAD5465   0.0000
    21 N3A         -4.6880    20.5390   -18.1770 N.ar         1 NAD5465   0.0000
    22 C4A         -4.1340    19.3060   -18.0190 C.ar         1 NAD5465   0.0000
    23 O3           4.4720    18.5780   -20.8600 O.3          1 NAD5465   0.0000
    24 PN           4.6600    19.9000   -21.8250 P.3          1 NAD5465   0.0000
    25 O1N          3.7410    21.0280   -22.2860 O.co2        1 NAD5465   0.0000
    26 O2N          5.8720    19.3930   -22.6760 O.co2        1 NAD5465  -1.0000
    27 O5D          3.5400    19.0470   -22.8890 O.3          1 NAD5465   0.0000
    28 C5D          3.0620    19.6400   -24.2470 C.2          1 NAD5465   0.0000
    29 C4D          2.8390    18.5060   -25.0470 C.2          1 NAD5465   0.0000
    30 O4D          3.4820    19.4960   -25.8720 O.3          1 NAD5465   0.0000
    31 C3D          2.7560    17.2540   -25.8150 C.3          1 NAD5465   0.0000
    32 O3D          1.6620    16.6190   -26.2290 O.3          1 NAD5465   0.0000
    33 C2D          3.8790    17.4530   -26.9680 C.3          1 NAD5465   0.0000
    34 O2D          3.7360    16.5000   -28.0190 O.3          1 NAD5465   0.0000
    35 C1D          4.0770    19.0840   -27.0640 C.3          1 NAD5465   0.0000
    36 N1N          5.4550    19.5690   -27.2600 N.ar         1 NAD5465   1.0000
    37 C2N          6.2970    19.5760   -26.2470 C.ar         1 NAD5465   0.0000
    38 C3N          7.5930    20.0370   -26.4440 C.ar         1 NAD5465   0.0000
    39 C7N          8.5880    20.0580   -25.3520 C.2          1 NAD5465   0.0000
    40 O7N          9.7303    20.4373   -25.5463 O.2          1 NAD5465   0.0000
    41 N7N          8.2210    19.6458   -24.1291 N.am         1 NAD5465   0.0000
    42 C4N          7.9510    20.4910   -27.7410 C.ar         1 NAD5465   0.0000
    43 C5N          7.0150    20.4670   -28.7830 C.ar         1 NAD5465   0.0000
    44 C6N          5.7620    19.9920   -28.5070 C.ar         1 NAD5465   0.0000
    45 H5B1         2.4631    20.6569   -18.2472 H            1 NAD5465   0.0000
    46 H5B2         2.0912    19.0884   -17.9860 H            1 NAD5465   0.0000
    47 H4B          0.3537    21.2945   -18.2763 H            1 NAD5465   0.0000
    48 H3B          1.1348    19.5498   -16.3318 H            1 NAD5465   0.0000
    49 H5          -0.4223    21.8702   -16.2414 H            1 NAD5465   0.0000
    50 H2B         -0.6815    18.3320   -16.5371 H            1 NAD5465   0.0000
    51 H7          -1.7582    20.5279   -15.1200 H            1 NAD5465   0.0000
    52 H1B         -2.0418    20.6865   -17.5662 H            1 NAD5465   0.0000
    53 H8A         -2.1197    16.8843   -17.6114 H            1 NAD5465   0.0000
    54 H6A1        -8.1782    17.3845   -18.5824 H            1 NAD5465   0.0000
    55 H6A2        -6.8328    16.3166   -18.3604 H            1 NAD5465   0.0000
    56 H2A         -6.3903    21.5923   -18.4747 H            1 NAD5465   0.0000
    57 H5D          2.9418    20.6019   -24.4924 H            1 NAD5465   0.0000
    58 H3D          3.1815    16.5882   -25.2022 H            1 NAD5465   0.0000
    59 H15          1.6725    16.5527   -27.2267 H            1 NAD5465   0.0000
    60 H2D          4.7180    17.1552   -26.5127 H            1 NAD5465   0.0000
    61 H17          3.5757    16.9778   -28.8827 H            1 NAD5465   0.0000
    62 H1D          3.5186    19.4205   -27.8223 H            1 NAD5465   0.0000
    63 H2N          6.0068    19.2531   -25.3462 H            1 NAD5465   0.0000
    64 H7N1         8.8847    19.6466   -23.3811 H            1 NAD5465   0.0000
    65 H7N2         7.2838    19.3377   -23.9656 H            1 NAD5465   0.0000
    66 H4N          8.8763    20.8297   -27.9115 H            1 NAD5465   0.0000
    67 H5N          7.2551    20.7869   -29.6995 H            1 NAD5465   0.0000
    68 H6N          5.0714    19.9576   -29.2294 H            1 NAD5465   0.0000
@<TRIPOS>BOND
     1    1    2      ar
     2    1    3      ar
     3    1    4       1
     4   43   44      ar
     5    1   23       1
     6    4    5       1
     7    5    6       1
     8    6    7       1
     9    6    8       1
    10    7   12       1
    11    8    9       1
    12    8   10       1
    13   10   11       1
    14   10   12       1
    15   12   13       1
    16   13   14       1
    17   13   22       1
    18   14   15       2
    19   15   16       1
    20   16   17      ar
    21   16   22      ar
    22   17   18       1
    23   17   19      ar
    24   19   20      ar
    25   20   21      ar
    26   21   22      ar
    27   23   24       1
    28   24   25      ar
    29   24   26      ar
    30   24   27       1
    31   27   28       1
    32   28   29       2
    33   42   43      ar
    34   29   30       1
    35   29   31       1
    36   30   35       1
    37   31   32       1
    38   31   33       1
    39   33   34       1
    40   33   35       1
    41   35   36       1
    42   36   37      ar
    43   36   44      ar
    44   37   38      ar
    45   38   39       1
    46   38   42      ar
    47   39   40       2
    48   39   41      am
    49   44   68       1
    50    5   45       1
    51    5   46       1
    52    6   47       1
    53    8   48       1
    54    9   49       1
    55   10   50       1
    56   11   51       1
    57   12   52       1
    58   14   53       1
    59   18   54       1
    60   18   55       1
    61   20   56       1
    62   43   67       1
    63   28   57       1
    64   31   58       1
    65   32   59       1
    66   33   60       1
    67   34   61       1
    68   35   62       1
    69   37   63       1
    70   41   64       1
    71   41   65       1
    72   42   66       1
@<TRIPOS>SUBSTRUCTURE
     1 NAD5465     1 GROUP             4 B     NAD     0 **** NAD B5465
