@<TRIPOS>MOLECULE
3sff_0DI_1_ligand
   48    50     1     0     0
SMALL
NO_CHARGES


@<TRIPOS>ATOM
     1 C1          10.0800    13.0350   -25.9630 C.3          1 0DI378   0.0000
     2 F1          14.3950    10.5630   -23.7870 F            1 0DI378   0.0000
     3 N1          10.9380    14.2270   -26.2280 N.am         1 0DI378   0.0000
     4 O1           6.7760    15.7730   -24.1880 O.2          1 0DI378   0.0000
     5 CL1          7.2110    17.2190   -19.4190 Cl           1 0DI378   0.0000
     6 C2           9.2970    13.1780   -24.6410 C.3          1 0DI378   0.0000
     7 F2          13.3450    12.9500   -28.6500 F            1 0DI378   0.0000
     8 N2           8.6060    14.5030   -24.5790 N.am         1 0DI378   0.0000
     9 O2          12.9590    15.2490   -26.5970 O.2          1 0DI378   0.0000
    10 C3           9.4820    15.6600   -24.9240 C.3          1 0DI378   0.0000
    11 N3           4.9310    13.7720   -23.8810 N.3          1 0DI378   0.0000
    12 C4          10.1730    15.4920   -26.2970 C.3          1 0DI378   0.0000
    13 C5           7.3000    14.6490   -24.2020 C.2          1 0DI378   0.0000
    14 C6           6.3740    13.4740   -23.7800 C.3          1 0DI378   0.0000
    15 C7           6.7920    12.9300   -22.3850 C.3          1 0DI378   0.0000
    16 C8           6.2650    13.7250   -21.2040 C.ar         1 0DI378   0.0000
    17 C9           6.9330    14.9270   -20.8290 C.ar         1 0DI378   0.0000
    18 C10          6.4290    15.7180   -19.7710 C.ar         1 0DI378   0.0000
    19 C11          5.3370    15.2550   -19.0020 C.ar         1 0DI378   0.0000
    20 C12          4.7060    14.0400   -19.3400 C.ar         1 0DI378   0.0000
    21 C13          5.1450    13.2810   -20.4550 C.ar         1 0DI378   0.0000
    22 C14         12.3020    14.2300   -26.3640 C.2          1 0DI378   0.0000
    23 C15         13.0870    12.9520   -26.2770 C.ar         1 0DI378   0.0000
    24 C16         13.5980    12.3670   -27.4580 C.ar         1 0DI378   0.0000
    25 C17         14.3640    11.1780   -27.4120 C.ar         1 0DI378   0.0000
    26 C18         14.5960    10.5650   -26.1670 C.ar         1 0DI378   0.0000
    27 C19         14.1160    11.1570   -24.9750 C.ar         1 0DI378   0.0000
    28 C20         13.3590    12.3550   -25.0150 C.ar         1 0DI378   0.0000
    29 H1          10.6611    12.2229   -25.9093 H            1 0DI378   0.0000
    30 H2           9.4295    12.9302   -26.7152 H            1 0DI378   0.0000
    31 H3           9.9327    13.1026   -23.8727 H            1 0DI378   0.0000
    32 H4           8.6153    12.4488   -24.5823 H            1 0DI378   0.0000
    33 H5          10.1861    15.7501   -24.2197 H            1 0DI378   0.0000
    34 H6           8.9238    16.4895   -24.9454 H            1 0DI378   0.0000
    35 H7           4.4298    12.9298   -24.0795 H            1 0DI378   0.0000
    36 H8           9.4889    15.4432   -27.0248 H            1 0DI378   0.0000
    37 H9          10.7896    16.2600   -26.4701 H            1 0DI378   0.0000
    38 H10          6.5505    12.7348   -24.4300 H            1 0DI378   0.0000
    39 H11          7.7909    12.9299   -22.3383 H            1 0DI378   0.0000
    40 H12          6.4544    11.9922   -22.3035 H            1 0DI378   0.0000
    41 H13          7.7594    15.2113   -21.3150 H            1 0DI378   0.0000
    42 H14          5.0128    15.7877   -18.2203 H            1 0DI378   0.0000
    43 H15          3.9406    13.7099   -18.7875 H            1 0DI378   0.0000
    44 H16          4.6688    12.4397   -20.7110 H            1 0DI378   0.0000
    45 H17         14.7345    10.7798   -28.2511 H            1 0DI378   0.0000
    46 H18         15.1039     9.7046   -26.1243 H            1 0DI378   0.0000
    47 H19         13.0223    12.7728   -24.1711 H            1 0DI378   0.0000
    48 H20          4.6085    14.1557   -23.0157 H            1 0DI378   0.0000
@<TRIPOS>BOND
     1    1    3       1
     2    1    6       1
     3    2   27       1
     4    3   12       1
     5    3   22      am
     6    4   13       2
     7    5   18       1
     8    6    8       1
     9    7   24       1
    10    8   10       1
    11    8   13      am
    12    9   22       2
    13   10   12       1
    14   11   14       1
    15   13   14       1
    16   14   15       1
    17   15   16       1
    18   16   17      ar
    19   16   21      ar
    20   17   18      ar
    21   18   19      ar
    22   19   20      ar
    23   20   21      ar
    24   22   23       1
    25   23   24      ar
    26   23   28      ar
    27   24   25      ar
    28   25   26      ar
    29   26   27      ar
    30   27   28      ar
    31    1   29       1
    32    1   30       1
    33    6   31       1
    34    6   32       1
    35   10   33       1
    36   10   34       1
    37   11   48       1
    38   11   35       1
    39   12   36       1
    40   12   37       1
    41   14   38       1
    42   15   39       1
    43   15   40       1
    44   17   41       1
    45   19   42       1
    46   20   43       1
    47   21   44       1
    48   25   45       1
    49   26   46       1
    50   28   47       1
@<TRIPOS>SUBSTRUCTURE
     1 0DI378      1 GROUP             4 A     0DI     0 **** 0DI A 378
