@<TRIPOS>MOLECULE
4ihq_ADP_1_ligand
   39    41     1     0     0
SMALL
NO_CHARGES


@<TRIPOS>ATOM
     1 PB          -5.5210   204.3490   122.1140 P.3          1 ADP601   0.0000
     2 O1B         -4.3260   203.4120   122.1760 O.co2        1 ADP601   0.0000
     3 O2B         -5.2130   205.6970   121.5200 O.co2        1 ADP601  -1.0000
     4 O3B         -6.7700   203.6740   121.5720 O.co2        1 ADP601  -1.0000
     5 PA          -6.7820   203.8350   124.6580 P.3          1 ADP601   0.0000
     6 O1A         -6.4540   202.3740   124.5140 O.co2        1 ADP601   0.0000
     7 O2A         -8.2330   204.2510   124.4830 O.co2        1 ADP601  -1.0000
     8 O3A         -5.8770   204.7110   123.6480 O.3          1 ADP601   0.0000
     9 O5'         -6.3010   204.3480   126.1110 O.3          1 ADP601   0.0000
    10 C5'         -4.9100   204.3600   126.4910 C.3          1 ADP601   0.0000
    11 C4'         -4.8640   204.3950   128.0230 C.3          1 ADP601   0.0000
    12 O4'         -5.3740   205.6590   128.4490 O.3          1 ADP601   0.0000
    13 C3'         -5.7760   203.3620   128.6620 C.3          1 ADP601   0.0000
    14 O3'         -5.1750   202.9200   129.8870 O.3          1 ADP601   0.0000
    15 C2'         -7.0490   204.1100   128.9970 C.3          1 ADP601   0.0000
    16 O2'         -7.6830   203.5980   130.1620 O.3          1 ADP601   0.0000
    17 C1'         -6.5680   205.5210   129.2330 C.3          1 ADP601   0.0000
    18 N9          -7.4540   206.5970   128.7330 N.pl3        1 ADP601   0.0000
    19 C8          -8.0950   206.6220   127.5530 C.2          1 ADP601   0.0000
    20 N7          -8.7790   207.7910   127.4090 N.2          1 ADP601   0.0000
    21 C5          -8.5740   208.5380   128.5020 C.ar         1 ADP601   0.0000
    22 C6          -8.9980   209.8710   128.9910 C.ar         1 ADP601   0.0000
    23 N6          -9.8050   210.6750   128.2520 N.pl3        1 ADP601   0.0000
    24 N1          -8.5340   210.2630   130.2030 N.ar         1 ADP601   0.0000
    25 C2          -7.7300   209.4810   130.9510 C.ar         1 ADP601   0.0000
    26 N3          -7.3110   208.2600   130.5700 N.ar         1 ADP601   0.0000
    27 C4          -7.6920   207.7440   129.3760 C.ar         1 ADP601   0.0000
    28 H5'1        -4.4584   205.1692   126.1153 H            1 ADP601   0.0000
    29 H5'2        -4.4544   203.5367   126.1525 H            1 ADP601   0.0000
    30 H4'         -3.9248   204.2741   128.3443 H            1 ADP601   0.0000
    31 H3'         -5.9527   202.5965   128.0434 H            1 ADP601   0.0000
    32 H5          -5.0114   201.9345   129.8414 H            1 ADP601   0.0000
    33 H2'         -7.6792   204.0848   128.2210 H            1 ADP601   0.0000
    34 H7          -7.4856   202.6214   130.2470 H            1 ADP601   0.0000
    35 H1'         -6.3649   205.6609   130.2021 H            1 ADP601   0.0000
    36 H9          -8.0732   205.8864   126.8759 H            1 ADP601   0.0000
    37 H10        -10.0770   211.5704   128.6045 H            1 ADP601   0.0000
    38 H11        -10.1273   210.3717   127.3553 H            1 ADP601   0.0000
    39 H12         -7.4279   209.8277   131.8390 H            1 ADP601   0.0000
@<TRIPOS>BOND
     1    1    2      ar
     2    1    3      ar
     3    1    4      ar
     4    1    8       1
     5    5    6      ar
     6    5    7      ar
     7    5    8       1
     8    5    9       1
     9    9   10       1
    10   10   11       1
    11   11   12       1
    12   11   13       1
    13   12   17       1
    14   13   14       1
    15   13   15       1
    16   15   16       1
    17   15   17       1
    18   17   18       1
    19   18   19       1
    20   18   27       1
    21   19   20       2
    22   20   21       1
    23   21   22      ar
    24   21   27      ar
    25   22   23       1
    26   22   24      ar
    27   24   25      ar
    28   25   26      ar
    29   26   27      ar
    30   25   39       1
    31   23   38       1
    32   23   37       1
    33   10   28       1
    34   10   29       1
    35   11   30       1
    36   13   31       1
    37   14   32       1
    38   15   33       1
    39   16   34       1
    40   17   35       1
    41   19   36       1
@<TRIPOS>SUBSTRUCTURE
     1 ADP601      1 GROUP             4 A     ADP     0 **** ADP A 601
