@<TRIPOS>MOLECULE
2oal_FAD_1_ligand
   84    89     1     0     0
SMALL
NO_CHARGES


@<TRIPOS>ATOM
     1 PA          -1.9480    41.2200   -30.0300 P.3          1 FAD600   0.0000
     2 O1A         -0.6420    40.4790   -30.1250 O.co2        1 FAD600   0.0000
     3 O2A         -1.8640    42.7680   -30.1700 O.co2        1 FAD600  -1.0000
     4 O5B         -2.8790    40.5420   -31.1310 O.3          1 FAD600   0.0000
     5 C5B         -3.6870    41.3160   -31.9880 C.3          1 FAD600   0.0000
     6 C4B         -4.4120    40.3210   -32.8740 C.3          1 FAD600   0.0000
     7 O4B         -5.6590    40.8940   -33.2900 O.3          1 FAD600   0.0000
     8 C3B         -3.6240    39.9490   -34.1320 C.3          1 FAD600   0.0000
     9 O3B         -3.6880    38.5500   -34.2960 O.3          1 FAD600   0.0000
    10 C2B         -4.3190    40.7190   -35.2470 C.3          1 FAD600   0.0000
    11 O2B         -4.2900    40.0260   -36.4840 O.3          1 FAD600   0.0000
    12 C1B         -5.7200    40.8530   -34.7160 C.3          1 FAD600   0.0000
    13 N9A         -6.4500    42.0170   -35.2580 N.pl3        1 FAD600   0.0000
    14 C8A         -6.4080    43.3520   -34.9180 C.2          1 FAD600   0.0000
    15 N7A         -7.2870    43.9940   -35.7650 N.2          1 FAD600   0.0000
    16 C5A         -7.8480    43.0780   -36.5890 C.ar         1 FAD600   0.0000
    17 C6A         -8.7800    43.1710   -37.6340 C.ar         1 FAD600   0.0000
    18 N6A         -9.2510    44.3760   -37.9610 N.pl3        1 FAD600   0.0000
    19 N1A         -9.1630    42.0050   -38.3090 N.ar         1 FAD600   0.0000
    20 C2A         -8.6210    40.7600   -37.9740 C.ar         1 FAD600   0.0000
    21 N3A         -7.6880    40.6760   -36.9380 N.ar         1 FAD600   0.0000
    22 C4A         -7.3160    41.8300   -36.2820 C.ar         1 FAD600   0.0000
    23 N1           3.3770    37.9710   -20.9650 N.2          1 FAD600   0.0000
    24 C2           4.0400    37.0690   -20.1260 C.2          1 FAD600   0.0000
    25 O2           3.4070    36.1170   -19.6250 O.2          1 FAD600   0.0000
    26 N3           5.3980    37.2240   -19.8490 N.pl3        1 FAD600   0.0000
    27 C4           6.1660    38.2650   -20.3730 C.2          1 FAD600   0.0000
    28 O4           7.3890    38.3600   -20.0930 O.2          1 FAD600   0.0000
    29 C4X          5.5150    39.1990   -21.2360 C.2          1 FAD600   0.0000
    30 N5           6.2300    40.2830   -21.8060 N.2          1 FAD600   0.0000
    31 C5X          5.6000    41.2130   -22.6580 C.ar         1 FAD600   0.0000
    32 C6           6.3520    42.2790   -23.2100 C.ar         1 FAD600   0.0000
    33 C7           5.7240    43.2200   -24.0660 C.ar         1 FAD600   0.0000
    34 C7M          6.5650    44.3370   -24.6400 C.3          1 FAD600   0.0000
    35 C8           4.3310    43.1150   -24.3760 C.ar         1 FAD600   0.0000
    36 C8M          3.6100    44.1110   -25.2960 C.3          1 FAD600   0.0000
    37 C9           3.5800    42.0460   -23.8200 C.ar         1 FAD600   0.0000
    38 C9A          4.2050    41.0870   -22.9530 C.ar         1 FAD600   0.0000
    39 N10          3.4660    39.9870   -22.3840 N.pl3        1 FAD600   0.0000
    40 C10          4.1140    39.0490   -21.5200 C.2          1 FAD600   0.0000
    41 C1'          1.9770    39.8240   -22.6840 C.3          1 FAD600   0.0000
    42 C2'          1.8110    38.9650   -23.9950 C.3          1 FAD600   0.0000
    43 O2'          2.4910    39.4900   -25.1550 O.3          1 FAD600   0.0000
    44 C3'          0.2980    38.8250   -24.3260 C.3          1 FAD600   0.0000
    45 O3'         -0.3480    38.2910   -23.1800 O.3          1 FAD600   0.0000
    46 C4'         -0.0160    37.8540   -25.4600 C.3          1 FAD600   0.0000
    47 O4'          0.9930    37.6920   -26.4250 O.3          1 FAD600   0.0000
    48 C5'         -1.3590    38.2410   -26.1370 C.3          1 FAD600   0.0000
    49 O5'         -1.3940    39.3700   -27.0190 O.3          1 FAD600   0.0000
    50 P           -2.8540    39.6830   -27.6610 P.3          1 FAD600   0.0000
    51 O1P         -3.2790    38.5060   -28.4150 O.co2        1 FAD600   0.0000
    52 O2P         -3.7660    40.1570   -26.5190 O.co2        1 FAD600  -1.0000
    53 O3P         -2.7360    40.9960   -28.6280 O.3          1 FAD600   0.0000
    54 H5B1        -3.1224    41.9289   -32.5408 H            1 FAD600   0.0000
    55 H5B2        -4.3426    41.8539   -31.4581 H            1 FAD600   0.0000
    56 H4B         -4.5953    39.4906   -32.3479 H            1 FAD600   0.0000
    57 H3B         -2.6728    40.2453   -34.0461 H            1 FAD600   0.0000
    58 H5          -3.2888    38.1020   -33.4960 H            1 FAD600   0.0000
    59 H2B         -3.9035    41.6227   -35.3503 H            1 FAD600   0.0000
    60 H7          -3.8142    40.5813   -37.1661 H            1 FAD600   0.0000
    61 H1B         -6.2242    40.0294   -34.9757 H            1 FAD600   0.0000
    62 H8A         -5.8515    43.7713   -34.2007 H            1 FAD600   0.0000
    63 H6A1        -9.9160    44.4687   -38.7021 H            1 FAD600   0.0000
    64 H6A2        -8.9389    45.1863   -37.4650 H            1 FAD600   0.0000
    65 H2A         -8.8987    39.9381   -38.4713 H            1 FAD600   0.0000
    66 H13          5.8415    36.5593   -19.2478 H            1 FAD600   0.0000
    67 H14          7.3249    42.3682   -22.9965 H            1 FAD600   0.0000
    68 H7M1         5.9951    44.9190   -25.2200 H            1 FAD600   0.0000
    69 H7M2         6.9484    44.8824   -23.8946 H            1 FAD600   0.0000
    70 H7M3         7.3080    43.9486   -25.1851 H            1 FAD600   0.0000
    71 H8M1         2.6471    43.8535   -25.3766 H            1 FAD600   0.0000
    72 H8M2         3.6779    45.0309   -24.9097 H            1 FAD600   0.0000
    73 H8M3         4.0356    44.0972   -26.2008 H            1 FAD600   0.0000
    74 H21          2.6070    41.9602   -24.0341 H            1 FAD600   0.0000
    75 H1'1         1.5610    40.7236   -22.8173 H            1 FAD600   0.0000
    76 H1'2         1.5295    39.3598   -21.9197 H            1 FAD600   0.0000
    77 H2'          2.1728    38.0508   -23.8127 H            1 FAD600   0.0000
    78 H25          3.4176    39.1161   -25.1959 H            1 FAD600   0.0000
    79 H3'         -0.0840    39.7244   -24.5384 H            1 FAD600   0.0000
    80 H27          0.2911    37.7079   -22.6785 H            1 FAD600   0.0000
    81 H4'         -0.1557    36.9578   -25.0389 H            1 FAD600   0.0000
    82 H29          1.7758    38.2677   -26.1887 H            1 FAD600   0.0000
    83 H5'1        -2.0149    38.4216   -25.4041 H            1 FAD600   0.0000
    84 H5'2        -1.6599    37.4472   -26.6655 H            1 FAD600   0.0000
@<TRIPOS>BOND
     1    1    2      ar
     2    1    3      ar
     3    1    4       1
     4    1   53       1
     5    4    5       1
     6    5    6       1
     7    6    7       1
     8    6    8       1
     9    7   12       1
    10    8    9       1
    11    8   10       1
    12   10   11       1
    13   10   12       1
    14   12   13       1
    15   13   14       1
    16   13   22       1
    17   14   15       2
    18   15   16       1
    19   16   17      ar
    20   16   22      ar
    21   17   18       1
    22   17   19      ar
    23   19   20      ar
    24   20   21      ar
    25   21   22      ar
    26   23   24       1
    27   23   40       2
    28   24   25       2
    29   24   26       1
    30   26   27       1
    31   27   28       2
    32   27   29       1
    33   29   30       2
    34   29   40       1
    35   30   31       1
    36   31   32      ar
    37   31   38      ar
    38   32   33      ar
    39   33   34       1
    40   33   35      ar
    41   35   36       1
    42   35   37      ar
    43   37   38      ar
    44   38   39       1
    45   39   40       1
    46   39   41       1
    47   41   42       1
    48   42   43       1
    49   42   44       1
    50   44   45       1
    51   44   46       1
    52   46   47       1
    53   46   48       1
    54   48   49       1
    55   49   50       1
    56   50   51      ar
    57   50   52      ar
    58   50   53       1
    59   48   84       1
    60    5   54       1
    61    5   55       1
    62    6   56       1
    63    8   57       1
    64    9   58       1
    65   10   59       1
    66   11   60       1
    67   12   61       1
    68   14   62       1
    69   18   63       1
    70   18   64       1
    71   20   65       1
    72   26   66       1
    73   32   67       1
    74   34   68       1
    75   34   69       1
    76   34   70       1
    77   36   71       1
    78   36   72       1
    79   36   73       1
    80   37   74       1
    81   41   75       1
    82   41   76       1
    83   42   77       1
    84   43   78       1
    85   44   79       1
    86   45   80       1
    87   46   81       1
    88   47   82       1
    89   48   83       1
@<TRIPOS>SUBSTRUCTURE
     1 FAD600      1 GROUP             4 A     FAD     0 **** FAD A 600
