@<TRIPOS>MOLECULE
1olt_SAM_2_ligand
   50    52     1     0     0
SMALL
NO_CHARGES


@<TRIPOS>ATOM
     1 C5'         28.1510    61.7720    11.3770 C.3          1 SAM502   0.0000
     2 C4'         27.1810    62.1640    12.4800 C.3          1 SAM502   0.0000
     3 O4'         27.9460    62.8350    13.4690 O.3          1 SAM502   0.0000
     4 C3'         26.1030    63.1670    12.0560 C.3          1 SAM502   0.0000
     5 O3'         25.0610    62.5400    11.3300 O.3          1 SAM502   0.0000
     6 C2'         25.7590    63.7470    13.4000 C.3          1 SAM502   0.0000
     7 O2'         24.9930    62.8320    14.1360 O.3          1 SAM502   0.0000
     8 C1'         27.1450    63.8780    14.0560 C.3          1 SAM502   0.0000
     9 N9          27.7790    65.1540    13.7750 N.pl3        1 SAM502   0.0000
    10 C8          28.4990    65.4950    12.6850 C.2          1 SAM502   0.0000
    11 N7          28.8980    66.8210    12.8170 N.2          1 SAM502   0.0000
    12 C5          28.4400    67.2800    13.9520 C.ar         1 SAM502   0.0000
    13 C6          28.5290    68.5030    14.5570 C.ar         1 SAM502   0.0000
    14 N6          29.2090    69.5200    14.0550 N.pl3        1 SAM502   0.0000
    15 N1          27.9030    68.6450    15.7430 N.ar         1 SAM502   0.0000
    16 C2          27.2180    67.6380    16.3090 C.ar         1 SAM502   0.0000
    17 N3          27.0990    66.4420    15.7170 N.ar         1 SAM502   0.0000
    18 C4          27.7140    66.2670    14.5560 C.ar         1 SAM502   0.0000
    19 N           28.8910    59.2920    15.4870 N.4          1 SAM502   1.0000
    20 CA          28.7200    57.9850    14.8250 C.3          1 SAM502   0.0000
    21 C           29.3660    56.8430    15.6370 C.2          1 SAM502   0.0000
    22 O           28.7360    55.8510    16.0530 O.co2        1 SAM502   0.0000
    23 OXT         30.5740    56.8330    15.9570 O.co2        1 SAM502  -1.0000
    24 CB          29.2730    58.0410    13.3760 C.3          1 SAM502   0.0000
    25 CG          28.4940    58.9640    12.3860 C.3          1 SAM502   0.0000
    26 SD          29.3540    60.5120    11.9450 S.3          1 SAM502   1.0000
    27 CE          30.1130    60.0760    10.3390 C.3          1 SAM502   0.0000
    28 H5'1        28.6505    62.5861    11.0808 H            1 SAM502   0.0000
    29 H5'2        27.6325    61.4005    10.6069 H            1 SAM502   0.0000
    30 H4'         26.7559    61.3472    12.8700 H            1 SAM502   0.0000
    31 H3'         26.5191    63.8769    11.4878 H            1 SAM502   0.0000
    32 H5          25.2805    62.5518    10.3545 H            1 SAM502   0.0000
    33 H2'         25.3018    64.6325    13.3168 H            1 SAM502   0.0000
    34 H7          24.1489    62.6288    13.6398 H            1 SAM502   0.0000
    35 H1'         27.0721    63.7406    15.0438 H            1 SAM502   0.0000
    36 H9          28.7099    64.8954    11.9130 H            1 SAM502   0.0000
    37 H10         29.2379    70.3920    14.5436 H            1 SAM502   0.0000
    38 H11         29.6943    69.4171    13.1867 H            1 SAM502   0.0000
    39 H12         26.7843    67.7851    17.1979 H            1 SAM502   0.0000
    40 H13         28.9290    60.0134    14.7956 H            1 SAM502   0.0000
    41 H14         28.1190    59.4585    16.1004 H            1 SAM502   0.0000
    42 HA          27.7390    57.7997    14.7684 H            1 SAM502   0.0000
    43 HB1         29.2579    57.1122    13.0058 H            1 SAM502   0.0000
    44 HB2         30.2174    58.3668    13.4205 H            1 SAM502   0.0000
    45 HG1         27.6190    59.2033    12.8069 H            1 SAM502   0.0000
    46 HG2         28.3294    58.4491    11.5447 H            1 SAM502   0.0000
    47 HE1         30.8137    59.3767    10.4804 H            1 SAM502   0.0000
    48 HE2         29.4092    59.7228     9.7226 H            1 SAM502   0.0000
    49 HE3         30.5311    60.8901     9.9359 H            1 SAM502   0.0000
    50 H23         29.7409    59.2901    16.0139 H            1 SAM502   0.0000
@<TRIPOS>BOND
     1    1    2       1
     2    1   26       1
     3    2    3       1
     4    2    4       1
     5    3    8       1
     6    4    5       1
     7    4    6       1
     8    6    7       1
     9    6    8       1
    10    8    9       1
    11    9   10       1
    12    9   18       1
    13   10   11       2
    14   11   12       1
    15   12   13      ar
    16   12   18      ar
    17   13   14       1
    18   13   15      ar
    19   15   16      ar
    20   16   17      ar
    21   17   18      ar
    22   19   20       1
    23   20   21       1
    24   20   24       1
    25   21   22      ar
    26   21   23      ar
    27   24   25       1
    28   25   26       1
    29   26   27       1
    30    1   28       1
    31    1   29       1
    32    2   30       1
    33    4   31       1
    34    5   32       1
    35    6   33       1
    36    7   34       1
    37    8   35       1
    38   10   36       1
    39   14   37       1
    40   14   38       1
    41   16   39       1
    42   19   40       1
    43   19   41       1
    44   20   42       1
    45   19   50       1
    46   24   43       1
    47   24   44       1
    48   25   45       1
    49   25   46       1
    50   27   47       1
    51   27   48       1
    52   27   49       1
@<TRIPOS>SUBSTRUCTURE
     1 SAM502      1 GROUP             4 A     SAM     0 **** SAM A 502
