@<TRIPOS>MOLECULE
4dlc_UMP_1_ligand
   31    32     1     0     0
SMALL
NO_CHARGES


@<TRIPOS>ATOM
     1 N1          -1.5140    19.3440    20.7800 N.pl3        1 UMP301   0.0000
     2 C2          -0.4280    19.3800    19.9430 C.2          1 UMP301   0.0000
     3 N3           0.8090    19.6950    20.4560 N.pl3        1 UMP301   0.0000
     4 C4           0.9990    20.0330    21.7720 C.2          1 UMP301   0.0000
     5 C5          -0.1190    19.9960    22.6100 C.2          1 UMP301   0.0000
     6 C6          -1.3650    19.6880    22.1000 C.2          1 UMP301   0.0000
     7 O2          -0.5720    19.0880    18.7610 O.2          1 UMP301   0.0000
     8 O4           2.1480    20.3240    22.1980 O.2          1 UMP301   0.0000
     9 C1'         -2.8330    19.0050    20.1710 C.3          1 UMP301   0.0000
    10 C2'         -2.9840    17.5680    19.7670 C.3          1 UMP301   0.0000
    11 C3'         -4.4560    17.2330    19.9290 C.3          1 UMP301   0.0000
    12 C4'         -4.9700    18.4100    20.7240 C.3          1 UMP301   0.0000
    13 O3'         -5.0680    17.1720    18.6490 O.3          1 UMP301   0.0000
    14 O4'         -3.8450    19.1580    21.1360 O.3          1 UMP301   0.0000
    15 C5'         -5.7800    17.9780    21.9340 C.3          1 UMP301   0.0000
    16 O5'         -6.2180    19.1410    22.6160 O.3          1 UMP301   0.0000
    17 P           -7.3610    18.8150    23.7230 P.3          1 UMP301   0.0000
    18 OP1         -8.7660    18.8920    23.2450 O.co2        1 UMP301   0.0000
    19 OP2         -7.1230    17.5690    24.5260 O.co2        1 UMP301  -1.0000
    20 OP3         -7.1790    19.7840    24.7970 O.co2        1 UMP301  -1.0000
    21 H1           1.6009    19.6769    19.8456 H            1 UMP301   0.0000
    22 H2          -0.0161    20.1938    23.5848 H            1 UMP301   0.0000
    23 H3          -2.1659    19.7159    22.6982 H            1 UMP301   0.0000
    24 H1'         -3.0126    19.6015    19.3887 H            1 UMP301   0.0000
    25 H2'1        -2.4285    16.9821    20.3570 H            1 UMP301   0.0000
    26 H2'2        -2.7034    17.4445    18.8152 H            1 UMP301   0.0000
    27 H3'         -4.5791    16.3764    20.4301 H            1 UMP301   0.0000
    28 H4'         -5.5424    18.9787    20.1333 H            1 UMP301   0.0000
    29 H9          -5.8254    16.5195    18.6724 H            1 UMP301   0.0000
    30 H5'1        -5.2107    17.4242    22.5416 H            1 UMP301   0.0000
    31 H5'2        -6.5706    17.4421    21.6377 H            1 UMP301   0.0000
@<TRIPOS>BOND
     1    1    2       1
     2    1    6       1
     3    1    9       1
     4    2    3       1
     5    2    7       2
     6    3    4       1
     7    4    5       1
     8    4    8       2
     9    5    6       2
    10    9   10       1
    11    9   14       1
    12   10   11       1
    13   11   12       1
    14   11   13       1
    15   12   14       1
    16   12   15       1
    17   15   16       1
    18   16   17       1
    19   17   18      ar
    20   17   19      ar
    21   17   20      ar
    22    3   21       1
    23    5   22       1
    24    6   23       1
    25    9   24       1
    26   10   25       1
    27   10   26       1
    28   11   27       1
    29   12   28       1
    30   13   29       1
    31   15   30       1
    32   15   31       1
@<TRIPOS>SUBSTRUCTURE
     1 UMP301      1 GROUP             4 A     UMP     0 **** UMP A 301
