@<TRIPOS>MOLECULE
1s0j_MUS_1_ligand
   57    59     1     0     0
SMALL
NO_CHARGES


@<TRIPOS>ATOM
     1 O16          7.0410   -19.8160    -2.4400 O.3          1 MUS700   0.0000
     2 C16          6.0640   -19.2020    -3.2710 C.3          1 MUS700   0.0000
     3 C15          6.6700   -18.0140    -4.0270 C.3          1 MUS700   0.0000
     4 O15          7.0240   -16.9900    -3.1220 O.3          1 MUS700   0.0000
     5 C14          7.9320   -18.5020    -4.7280 C.3          1 MUS700   0.0000
     6 O14          7.5780   -19.7240    -5.3770 O.3          1 MUS700   0.0000
     7 C13          8.4400   -17.4510    -5.7180 C.3          1 MUS700   0.0000
     8 O13          7.2910   -17.1000    -6.4660 O.3          1 MUS700   0.0000
     9 C12          9.5640   -18.0000    -6.6210 C.3          1 MUS700   0.0000
    10 N12         10.7380   -18.4450    -5.8660 N.am         1 MUS700   0.0000
    11 C17         10.9550   -19.7400    -5.6690 C.2          1 MUS700   0.0000
    12 C18         12.2470   -20.1090    -5.0200 C.3          1 MUS700   0.0000
    13 O17         10.1270   -20.6310    -5.9760 O.2          1 MUS700   0.0000
    14 C11          9.9780   -16.9260    -7.6540 C.3          1 MUS700   0.0000
    15 O11         10.2310   -17.5970    -8.8760 O.3          1 MUS700   0.0000
    16 C10          8.8530   -15.9450    -7.9440 C.3          1 MUS700   0.0000
    17 C9           7.4730   -16.5560    -7.7400 C.3          1 MUS700   0.0000
    18 C19          6.4040   -15.5000    -7.9750 C.2          1 MUS700   0.0000
    19 O19          5.5650   -15.2220    -7.0830 O.co2        1 MUS700   0.0000
    20 O20          6.3950   -14.9270    -9.0620 O.co2        1 MUS700  -1.0000
    21 O9           7.2480   -17.5960    -8.6930 O.3          1 MUS700   0.0000
    22 C7           6.0020   -18.1470    -8.8500 C.ar         1 MUS700   0.0000
    23 C6           5.5140   -19.1780    -8.0360 C.ar         1 MUS700   0.0000
    24 C8           5.3710   -17.8410   -10.0400 C.ar         1 MUS700   0.0000
    25 C8A          4.2130   -18.4950   -10.4010 C.ar         1 MUS700   0.0000
    26 C4A          3.6830   -19.5620    -9.5550 C.ar         1 MUS700   0.0000
    27 C5           4.3740   -19.9290    -8.3940 C.ar         1 MUS700   0.0000
    28 O1           3.5560   -18.1140   -11.5440 O.2          1 MUS700   0.0000
    29 C2           2.3820   -18.7340   -11.9220 C.2          1 MUS700   0.0000
    30 O2           1.8420   -18.3150   -12.9680 O.2          1 MUS700   0.0000
    31 C3           1.8080   -19.7680   -11.1730 C.2          1 MUS700   0.0000
    32 C4           2.4210   -20.2110   -10.0000 C.2          1 MUS700   0.0000
    33 CM4          1.8520   -21.2910    -9.1680 C.3          1 MUS700   0.0000
    34 H1           7.1587   -20.7707    -2.7134 H            1 MUS700   0.0000
    35 H2           5.3062   -18.8790    -2.7041 H            1 MUS700   0.0000
    36 H3           5.7247   -19.8728    -3.9304 H            1 MUS700   0.0000
    37 H4           6.0168   -17.6664    -4.6996 H            1 MUS700   0.0000
    38 H5           6.9470   -16.1024    -3.5762 H            1 MUS700   0.0000
    39 H6           8.6402   -18.6831    -4.0457 H            1 MUS700   0.0000
    40 H7           8.3757   -20.0902    -5.8561 H            1 MUS700   0.0000
    41 H8           8.7719   -16.6513    -5.2176 H            1 MUS700   0.0000
    42 H9           9.2020   -18.7866    -7.1213 H            1 MUS700   0.0000
    43 H10         11.3783   -17.7709    -5.4977 H            1 MUS700   0.0000
    44 H11         12.2997   -21.1030    -4.9237 H            1 MUS700   0.0000
    45 H12         13.0073   -19.7881    -5.5847 H            1 MUS700   0.0000
    46 H13         12.2998   -19.6833    -4.1167 H            1 MUS700   0.0000
    47 H14         10.7957   -16.4400    -7.3454 H            1 MUS700   0.0000
    48 H15          9.3874   -17.6447    -9.4109 H            1 MUS700   0.0000
    49 H16          8.9309   -15.6405    -8.8933 H            1 MUS700   0.0000
    50 H17          8.9484   -15.1591    -7.3330 H            1 MUS700   0.0000
    51 H18          5.9857   -19.3870    -7.1794 H            1 MUS700   0.0000
    52 H19          5.7562   -17.1418   -10.6422 H            1 MUS700   0.0000
    53 H20          4.0689   -20.7001    -7.8352 H            1 MUS700   0.0000
    54 H21          0.9553   -20.1909   -11.4796 H            1 MUS700   0.0000
    55 HM41         1.0104   -21.6285    -9.5897 H            1 MUS700   0.0000
    56 HM42         2.5118   -22.0389    -9.0958 H            1 MUS700   0.0000
    57 HM43         1.6486   -20.9367    -8.2553 H            1 MUS700   0.0000
@<TRIPOS>BOND
     1    1    2       1
     2    2    3       1
     3    3    4       1
     4    3    5       1
     5    5    6       1
     6    5    7       1
     7    7    8       1
     8    7    9       1
     9    8   17       1
    10    9   10       1
    11    9   14       1
    12   10   11      am
    13   11   12       1
    14   11   13       2
    15   14   15       1
    16   14   16       1
    17   16   17       1
    18   17   18       1
    19   17   21       1
    20   18   19      ar
    21   18   20      ar
    22   21   22       1
    23   22   23      ar
    24   22   24      ar
    25   23   27      ar
    26   24   25      ar
    27   25   26      ar
    28   25   28       1
    29   26   27      ar
    30   26   32       1
    31   28   29       1
    32   29   30       2
    33   29   31       1
    34   31   32       2
    35   32   33       1
    36    1   34       1
    37    2   35       1
    38    2   36       1
    39    3   37       1
    40    4   38       1
    41    5   39       1
    42    6   40       1
    43    7   41       1
    44    9   42       1
    45   10   43       1
    46   12   44       1
    47   12   45       1
    48   12   46       1
    49   14   47       1
    50   15   48       1
    51   16   49       1
    52   16   50       1
    53   33   57       1
    54   23   51       1
    55   24   52       1
    56   27   53       1
    57   31   54       1
    58   33   55       1
    59   33   56       1
@<TRIPOS>SUBSTRUCTURE
     1 MUS700      1 GROUP             4 A     MUS     0 **** MUS A 700
