@<TRIPOS>MOLECULE
1v25_ANP_1_ligand
   44    46     1     0     0
SMALL
NO_CHARGES


@<TRIPOS>ATOM
     1 PG           8.2260    57.7330   160.1510 P.3          1 ANP666   0.0000
     2 O1G          9.7080    58.0320   160.0990 O.co2        1 ANP666   0.0000
     3 O2G          8.0170    56.3400   160.7040 O.co2        1 ANP666  -1.0000
     4 O3G          7.5850    58.7150   161.1020 O.co2        1 ANP666  -1.0000
     5 PB           6.1460    56.9150   158.3480 P.3          1 ANP666   0.0000
     6 O1B          5.1330    57.7440   157.6060 O.co2        1 ANP666   0.0000
     7 O2B          6.5340    55.6460   157.5000 O.co2        1 ANP666  -1.0000
     8 N3B          7.5080    57.8210   158.6510 N.3          1 ANP666   0.0000
     9 PA           4.5960    57.3070   160.6440 P.3          1 ANP666   0.0000
    10 O1A          5.0490    58.7450   160.6090 O.co2        1 ANP666   0.0000
    11 O2A          4.6730    56.7480   162.1210 O.co2        1 ANP666  -1.0000
    12 O3A          5.4900    56.4010   159.6980 O.3          1 ANP666   0.0000
    13 O5'          3.0890    57.2670   160.1610 O.3          1 ANP666   0.0000
    14 C5'          2.2710    56.1220   160.3780 C.3          1 ANP666   0.0000
    15 C4'          0.8530    56.5000   160.0320 C.3          1 ANP666   0.0000
    16 O4'          0.7190    56.7730   158.6320 O.3          1 ANP666   0.0000
    17 C3'         -0.1030    55.3380   160.3190 C.3          1 ANP666   0.0000
    18 O3'         -0.5530    55.3870   161.6690 O.3          1 ANP666   0.0000
    19 C2'         -1.2450    55.5760   159.3250 C.3          1 ANP666   0.0000
    20 O2'         -2.1580    56.5270   159.8670 O.3          1 ANP666   0.0000
    21 C1'         -0.5450    56.2470   158.1400 C.3          1 ANP666   0.0000
    22 N9          -0.2810    55.2380   157.1120 N.pl3        1 ANP666   0.0000
    23 C8           0.8950    54.6220   156.9280 C.2          1 ANP666   0.0000
    24 N7           0.7520    53.7650   155.8910 N.2          1 ANP666   0.0000
    25 C5          -0.5390    53.8720   155.4400 C.ar         1 ANP666   0.0000
    26 C6          -1.2640    53.2560   154.4130 C.ar         1 ANP666   0.0000
    27 N6          -0.6760    52.3360   153.6180 N.pl3        1 ANP666   0.0000
    28 N1          -2.5520    53.5820   154.2320 N.ar         1 ANP666   0.0000
    29 C2          -3.1460    54.5040   155.0160 C.ar         1 ANP666   0.0000
    30 N3          -2.4720    55.1210   156.0050 N.ar         1 ANP666   0.0000
    31 C4          -1.1850    54.8160   156.2340 C.ar         1 ANP666   0.0000
    32 H3B          8.1971    57.5455   157.9808 H            1 ANP666   0.0000
    33 H5'1         2.3246    55.8417   161.3364 H            1 ANP666   0.0000
    34 H5'2         2.5755    55.3701   159.7933 H            1 ANP666   0.0000
    35 H4'          0.5782    57.3028   160.5611 H            1 ANP666   0.0000
    36 H3'          0.3451    54.4637   160.1324 H            1 ANP666   0.0000
    37 H6          -1.4710    54.9950   161.7288 H            1 ANP666   0.0000
    38 H2'         -1.6992    54.7249   159.0618 H            1 ANP666   0.0000
    39 H8          -2.8635    56.0504   160.3916 H            1 ANP666   0.0000
    40 H1'         -1.1109    56.9839   157.7704 H            1 ANP666   0.0000
    41 H10          1.7281    54.7693   157.4612 H            1 ANP666   0.0000
    42 H11         -1.1996    51.8997   152.8862 H            1 ANP666   0.0000
    43 H12          0.2829    52.0911   153.7612 H            1 ANP666   0.0000
    44 H13         -4.1065    54.7343   154.8599 H            1 ANP666   0.0000
@<TRIPOS>BOND
     1    1    2      ar
     2    1    3      ar
     3    1    4      ar
     4    1    8       1
     5    5    6      ar
     6    5    7      ar
     7    5    8       1
     8    5   12       1
     9    9   10      ar
    10    9   11      ar
    11    9   12       1
    12    9   13       1
    13   13   14       1
    14   14   15       1
    15   15   16       1
    16   15   17       1
    17   16   21       1
    18   17   18       1
    19   17   19       1
    20   19   20       1
    21   19   21       1
    22   21   22       1
    23   22   23       1
    24   22   31       1
    25   23   24       2
    26   24   25       1
    27   25   26      ar
    28   25   31      ar
    29   26   27       1
    30   26   28      ar
    31   28   29      ar
    32   29   30      ar
    33   30   31      ar
    34   29   44       1
    35   27   43       1
    36   27   42       1
    37    8   32       1
    38   23   41       1
    39   14   33       1
    40   14   34       1
    41   15   35       1
    42   17   36       1
    43   18   37       1
    44   19   38       1
    45   20   39       1
    46   21   40       1
@<TRIPOS>SUBSTRUCTURE
     1 ANP666      1 GROUP             4 A     ANP     0 **** ANP A 666
