@<TRIPOS>MOLECULE
4mvc_CDC_2_ligand
   56    57     1     0     0
SMALL
NO_CHARGES


@<TRIPOS>ATOM
     1 N1           8.3260   -10.7880   -33.4090 N.pl3        1 CDC401   0.0000
     2 C2           8.8920    -9.6010   -33.6770 C.2          1 CDC401   0.0000
     3 N3           8.7770    -8.5630   -32.8160 N.2          1 CDC401   0.0000
     4 C4           8.0910    -8.7020   -31.6610 C.2          1 CDC401   0.0000
     5 C5           7.5040    -9.9270   -31.3680 C.2          1 CDC401   0.0000
     6 C6           7.6410   -10.9730   -32.2730 C.2          1 CDC401   0.0000
     7 O2           9.5890    -9.4360   -34.8360 O.2          1 CDC401   0.0000
     8 N4           7.9810    -7.6560   -30.7990 N.pl3        1 CDC401   0.0000
     9 C1'          8.4750   -11.8930   -34.3670 C.3          1 CDC401   0.0000
    10 C2'          9.6440   -12.8000   -34.0070 C.3          1 CDC401   0.0000
    11 O2'         10.8440   -12.4040   -34.6800 O.3          1 CDC401   0.0000
    12 C3'          9.2100   -14.1720   -34.4760 C.3          1 CDC401   0.0000
    13 C4'          7.6960   -14.1070   -34.5990 C.3          1 CDC401   0.0000
    14 O4'          7.3150   -12.7360   -34.3970 O.3          1 CDC401   0.0000
    15 O3'          9.7810   -14.4350   -35.7610 O.3          1 CDC401   0.0000
    16 C5'          7.0250   -15.0400   -33.5930 C.3          1 CDC401   0.0000
    17 O5'          7.6220   -14.9250   -32.2990 O.3          1 CDC401   0.0000
    18 PA           7.1080   -15.8570   -31.0840 P.3          1 CDC401   0.0000
    19 O1A          5.5990   -15.9170   -31.1590 O.co2        1 CDC401   0.0000
    20 O2A          7.7520   -15.4150   -29.7900 O.co2        1 CDC401  -1.0000
    21 O3A          7.7130   -17.3020   -31.4730 O.3          1 CDC401   0.0000
    22 PB           9.2210   -17.7240   -31.0690 P.3          1 CDC401   0.0000
    23 O1B          9.3420   -19.2210   -31.6430 O.3          1 CDC401   0.0000
    24 O2B         10.1960   -16.8680   -31.8450 O.co2        1 CDC401   0.0000
    25 O3B          9.3120   -17.8110   -29.5620 O.co2        1 CDC401  -1.0000
    26 C14          9.9040   -19.4510   -32.9330 C.3          1 CDC401   0.0000
    27 C15          9.6200   -20.8860   -33.3560 C.3          1 CDC401   0.0000
    28 N11         10.5880   -21.7960   -32.7280 N.4          1 CDC401   1.0000
    29 C16         11.9430   -21.2520   -32.8690 C.3          1 CDC401   0.0000
    30 C17         10.5010   -23.0940   -33.4100 C.3          1 CDC401   0.0000
    31 C18         10.2920   -21.9600   -31.2970 C.3          1 CDC401   0.0000
    32 H1           6.9909   -10.0540   -30.5191 H            1 CDC401   0.0000
    33 H2           7.2287   -11.8625   -32.0762 H            1 CDC401   0.0000
    34 H3           7.4721    -7.7633   -29.9449 H            1 CDC401   0.0000
    35 H4           8.4090    -6.7795   -31.0192 H            1 CDC401   0.0000
    36 H1'          8.6259   -11.5142   -35.2801 H            1 CDC401   0.0000
    37 H2'          9.7875   -12.8025   -33.0174 H            1 CDC401   0.0000
    38 H7          11.6357   -12.6406   -34.1167 H            1 CDC401   0.0000
    39 H3'          9.4819   -14.8737   -33.8174 H            1 CDC401   0.0000
    40 H4'          7.4335   -14.3838   -35.5234 H            1 CDC401   0.0000
    41 H10         10.3323   -13.6514   -36.0475 H            1 CDC401   0.0000
    42 H5'1         7.1175   -15.9833   -33.9117 H            1 CDC401   0.0000
    43 H5'2         6.0555   -14.8042   -33.5265 H            1 CDC401   0.0000
    44 H13         10.8923   -19.3021   -32.8984 H            1 CDC401   0.0000
    45 H14          9.4949   -18.8208   -33.5930 H            1 CDC401   0.0000
    46 H15          9.6940   -20.9589   -34.3506 H            1 CDC401   0.0000
    47 H16          8.6952   -21.1384   -33.0712 H            1 CDC401   0.0000
    48 H17         12.5982   -21.8741   -32.4405 H            1 CDC401   0.0000
    49 H18         12.1631   -21.1529   -33.8394 H            1 CDC401   0.0000
    50 H19         11.9914   -20.3582   -32.4232 H            1 CDC401   0.0000
    51 H20         11.1526   -23.7312   -32.9984 H            1 CDC401   0.0000
    52 H21          9.5744   -23.4582   -33.3166 H            1 CDC401   0.0000
    53 H22         10.7168   -22.9764   -34.3793 H            1 CDC401   0.0000
    54 H23         10.9600   -22.5814   -30.8875 H            1 CDC401   0.0000
    55 H24         10.3416   -21.0707   -30.8423 H            1 CDC401   0.0000
    56 H25          9.3732   -22.3394   -31.1880 H            1 CDC401   0.0000
@<TRIPOS>BOND
     1    1    2       1
     2    1    6       1
     3    1    9       1
     4    2    3       1
     5    2    7       2
     6    3    4       2
     7    4    5       1
     8    4    8       1
     9    5    6       2
    10    9   10       1
    11    9   14       1
    12   10   11       1
    13   10   12       1
    14   12   13       1
    15   12   15       1
    16   13   14       1
    17   13   16       1
    18   16   17       1
    19   17   18       1
    20   18   19      ar
    21   18   20      ar
    22   18   21       1
    23   21   22       1
    24   22   23       1
    25   22   24      ar
    26   22   25      ar
    27   23   26       1
    28   26   27       1
    29   27   28       1
    30   28   29       1
    31   28   30       1
    32   28   31       1
    33    5   32       1
    34    6   33       1
    35    8   34       1
    36    8   35       1
    37    9   36       1
    38   10   37       1
    39   11   38       1
    40   12   39       1
    41   13   40       1
    42   15   41       1
    43   16   42       1
    44   16   43       1
    45   31   56       1
    46   31   55       1
    47   26   44       1
    48   26   45       1
    49   27   46       1
    50   27   47       1
    51   29   48       1
    52   29   49       1
    53   29   50       1
    54   30   51       1
    55   30   52       1
    56   30   53       1
    57   31   54       1
@<TRIPOS>SUBSTRUCTURE
     1 CDC401      1 GROUP             4 B     CDC     0 **** CDC B 401
