@<TRIPOS>MOLECULE
4nv7_COA_1_ligand
   80    82     1     0     0
SMALL
NO_CHARGES


@<TRIPOS>ATOM
     1 N1A         13.8050   -10.0150    13.2770 N.ar         1 COA301   0.0000
     2 C2A         14.7270    -9.3610    12.5280 C.ar         1 COA301   0.0000
     3 N3A         14.5010    -8.9980    11.2460 N.ar         1 COA301   0.0000
     4 C4A         13.3180    -9.2840    10.6330 C.ar         1 COA301   0.0000
     5 C5A         12.2700    -9.9970    11.3890 C.ar         1 COA301   0.0000
     6 C6A         12.5740   -10.3560    12.7940 C.ar         1 COA301   0.0000
     7 N6A         11.6690   -11.0160    13.5510 N.pl3        1 COA301   0.0000
     8 N7A         11.2350   -10.1430    10.5460 N.2          1 COA301   0.0000
     9 C8A         11.5620    -9.5840     9.3570 C.2          1 COA301   0.0000
    10 N9A         12.8050    -9.0640     9.4190 N.pl3        1 COA301   0.0000
    11 C1B         13.5330    -8.4110     8.3190 C.3          1 COA301   0.0000
    12 C2B         13.8140    -9.4730     7.2600 C.3          1 COA301   0.0000
    13 O2B         14.9820   -10.2390     7.5680 O.3          1 COA301   0.0000
    14 C3B         13.9720    -8.6450     6.0150 C.3          1 COA301   0.0000
    15 O3B         15.3430    -8.2450     5.9890 O.3          1 COA301   0.0000
    16 P3B         16.1140    -7.6370     4.7070 P.3          1 COA301   0.0000
    17 O7A         15.7190    -6.1700     4.7570 O.co2        1 COA301   0.0000
    18 O8A         17.5700    -7.9430     5.0200 O.co2        1 COA301  -1.0000
    19 O9A         15.5860    -8.4040     3.5190 O.co2        1 COA301  -1.0000
    20 C4B         13.0060    -7.4830     6.2410 C.3          1 COA301   0.0000
    21 O4B         12.8160    -7.3750     7.6510 O.3          1 COA301   0.0000
    22 C5B         11.6290    -7.6990     5.6160 C.3          1 COA301   0.0000
    23 O5B         11.0830    -8.9940     5.9400 O.3          1 COA301   0.0000
    24 P1A         10.0900    -9.7660     4.9210 P.3          1 COA301   0.0000
    25 O1A         10.5590    -9.4040     3.5400 O.co2        1 COA301   0.0000
    26 O2A          8.6630    -9.4730     5.2920 O.co2        1 COA301  -1.0000
    27 O3A         10.4320   -11.3340     5.0830 O.3          1 COA301   0.0000
    28 P2A         10.0820   -12.3180     6.3120 P.3          1 COA301   0.0000
    29 O4A         10.4110   -13.7170     5.8330 O.co2        1 COA301   0.0000
    30 O5A         10.7280   -11.8550     7.5980 O.co2        1 COA301  -1.0000
    31 O6A          8.4640   -12.2040     6.4140 O.3          1 COA301   0.0000
    32 CBP          6.1200   -12.4530     5.7540 C.3          1 COA301   0.0000
    33 CCP          7.5960   -12.5410     5.3270 C.3          1 COA301   0.0000
    34 CDP          5.2260   -12.6900     4.5390 C.3          1 COA301   0.0000
    35 CEP          5.8490   -13.5070     6.8350 C.3          1 COA301   0.0000
    36 CAP          5.8770   -11.0400     6.3210 C.3          1 COA301   0.0000
    37 OAP          6.1730   -10.0850     5.2820 O.3          1 COA301   0.0000
    38 C9P          4.4820   -10.7960     6.8680 C.2          1 COA301   0.0000
    39 O9P          4.1280   -11.3080     7.9440 O.2          1 COA301   0.0000
    40 N8P          3.7360    -9.9350     6.1500 N.am         1 COA301   0.0000
    41 C7P          2.4440    -9.3850     6.5650 C.3          1 COA301   0.0000
    42 C6P          1.2490   -10.2690     6.2290 C.3          1 COA301   0.0000
    43 C5P         -0.0600    -9.5150     6.4180 C.2          1 COA301   0.0000
    44 O5P         -0.3530    -8.5920     5.6750 O.2          1 COA301   0.0000
    45 N4P         -0.8630    -9.9310     7.3970 N.am         1 COA301   0.0000
    46 C3P         -2.1630    -9.3350     7.6580 C.3          1 COA301   0.0000
    47 C2P         -3.2250    -9.6750     6.6090 C.3          1 COA301   0.0000
    48 S1P         -3.7400   -11.4040     6.8100 S.3          1 COA301   0.0000
    49 H2A         15.6100    -9.1383    12.9411 H            1 COA301   0.0000
    50 H6A1        10.7753   -11.2522    13.1696 H            1 COA301   0.0000
    51 H6A2        11.8933   -11.2680    14.4924 H            1 COA301   0.0000
    52 H8A         10.9695    -9.5602     8.5518 H            1 COA301   0.0000
    53 H1B         14.3987    -8.0475     8.6630 H            1 COA301   0.0000
    54 H2B         13.0240   -10.0791     7.1677 H            1 COA301   0.0000
    55 H7          15.1312   -10.9215     6.8526 H            1 COA301   0.0000
    56 H3B         13.7292    -9.1668     5.1972 H            1 COA301   0.0000
    57 H4B         13.4073    -6.6374     5.8890 H            1 COA301   0.0000
    58 H5B1        11.7105    -7.6229     4.6222 H            1 COA301   0.0000
    59 H5B2        11.0070    -6.9930     5.9545 H            1 COA301   0.0000
    60 HCP1         7.7947   -13.4739     5.0266 H            1 COA301   0.0000
    61 HCP2         7.7564   -11.9062     4.5712 H            1 COA301   0.0000
    62 HDP1         4.2665   -12.6331     4.8150 H            1 COA301   0.0000
    63 HDP2         5.4151   -11.9950     3.8454 H            1 COA301   0.0000
    64 HDP3         5.4109   -13.5971     4.1610 H            1 COA301   0.0000
    65 HEP1         4.8912   -13.4559     7.1177 H            1 COA301   0.0000
    66 HEP2         6.0402   -14.4175     6.4682 H            1 COA301   0.0000
    67 HEP3         6.4390   -13.3348     7.6238 H            1 COA301   0.0000
    68 HAP          6.5278   -10.8932     7.0660 H            1 COA301   0.0000
    69 H21          7.1377    -9.8265     5.3319 H            1 COA301   0.0000
    70 H8P          4.0934    -9.6479     5.2613 H            1 COA301   0.0000
    71 H7P1         2.3186    -8.5030     6.1107 H            1 COA301   0.0000
    72 H7P2         2.4648    -9.2498     7.5556 H            1 COA301   0.0000
    73 H6P1         1.2551   -11.0686     6.8294 H            1 COA301   0.0000
    74 H6P2         1.3201   -10.5665     5.2769 H            1 COA301   0.0000
    75 H4P         -0.5579   -10.6861     7.9773 H            1 COA301   0.0000
    76 H3P1        -2.0539    -8.3413     7.6846 H            1 COA301   0.0000
    77 H3P2        -2.4846    -9.6589     8.5477 H            1 COA301   0.0000
    78 H2P1        -2.8435    -9.5448     5.6938 H            1 COA301   0.0000
    79 H2P2        -4.0162    -9.0752     6.7288 H            1 COA301   0.0000
    80 H1P         -4.5116   -11.4504     7.4444 H            1 COA301   0.0000
@<TRIPOS>BOND
     1    1    2      ar
     2    1    6      ar
     3    2    3      ar
     4    3    4      ar
     5    4    5      ar
     6    4   10       1
     7    5    6      ar
     8    5    8       1
     9    6    7       1
    10    8    9       2
    11    9   10       1
    12   10   11       1
    13   11   12       1
    14   11   21       1
    15   12   13       1
    16   12   14       1
    17   14   15       1
    18   14   20       1
    19   15   16       1
    20   16   17      ar
    21   16   18      ar
    22   16   19      ar
    23   20   21       1
    24   20   22       1
    25   22   23       1
    26   23   24       1
    27   24   25      ar
    28   24   26      ar
    29   24   27       1
    30   27   28       1
    31   28   29      ar
    32   28   30      ar
    33   28   31       1
    34   31   33       1
    35   32   33       1
    36   32   34       1
    37   32   35       1
    38   32   36       1
    39   36   37       1
    40   36   38       1
    41   38   39       2
    42   38   40      am
    43   40   41       1
    44   41   42       1
    45   42   43       1
    46   43   44       2
    47   43   45      am
    48   45   46       1
    49   46   47       1
    50   47   48       1
    51    2   49       1
    52    7   50       1
    53    7   51       1
    54    9   52       1
    55   11   53       1
    56   12   54       1
    57   13   55       1
    58   14   56       1
    59   48   80       1
    60   47   79       1
    61   20   57       1
    62   22   58       1
    63   22   59       1
    64   47   78       1
    65   46   77       1
    66   33   60       1
    67   33   61       1
    68   34   62       1
    69   34   63       1
    70   34   64       1
    71   35   65       1
    72   35   66       1
    73   35   67       1
    74   36   68       1
    75   37   69       1
    76   40   70       1
    77   41   71       1
    78   41   72       1
    79   42   73       1
    80   42   74       1
    81   45   75       1
    82   46   76       1
@<TRIPOS>SUBSTRUCTURE
     1 COA301      1 GROUP             4 A     COA     0 **** COA A 301
