@<TRIPOS>MOLECULE
5c3y_AN2_11_ligand
   41    43     1     0     0
SMALL
NO_CHARGES


@<TRIPOS>ATOM
     1 N3B         34.0830    12.5290   101.9980 N.3          1 AN2401   0.0000
     2 PB          35.0170    13.4750   100.8590 P.3          1 AN2401   0.0000
     3 O2B         35.5250    14.8960   101.4310 O.co2        1 AN2401   0.0000
     4 O1B         34.2530    13.6670    99.5750 O.co2        1 AN2401  -1.0000
     5 O3A         36.4290    12.7070   100.7050 O.3          1 AN2401   0.0000
     6 PA          37.4410    12.3020   101.9070 P.3          1 AN2401   0.0000
     7 O1A         37.7400    10.8080   101.9170 O.co2        1 AN2401   0.0000
     8 O2A         36.9160    12.9990   103.1420 O.co2        1 AN2401  -1.0000
     9 O5'         38.8490    12.8640   101.3900 O.3          1 AN2401   0.0000
    10 C5'         39.2640    12.5600   100.0630 C.3          1 AN2401   0.0000
    11 C4'         40.6100    13.1590    99.7010 C.3          1 AN2401   0.0000
    12 O4'         40.4090    14.5300    99.3980 O.3          1 AN2401   0.0000
    13 C3'         41.7070    13.1310   100.7670 C.3          1 AN2401   0.0000
    14 O3'         42.4040    11.8790   100.8130 O.3          1 AN2401   0.0000
    15 C2'         42.5660    14.3170   100.3470 C.3          1 AN2401   0.0000
    16 O2'         43.4550    14.0630    99.2550 O.3          1 AN2401   0.0000
    17 C1'         41.5200    15.3100    99.8590 C.3          1 AN2401   0.0000
    18 N9          41.1210    16.2130   100.9710 N.pl3        1 AN2401   0.0000
    19 C8          39.9880    16.1130   101.6990 C.2          1 AN2401   0.0000
    20 N7          39.9270    17.0730   102.6450 N.2          1 AN2401   0.0000
    21 C5          41.0480    17.8070   102.5240 C.ar         1 AN2401   0.0000
    22 C4          41.8460    17.2470   101.4240 C.ar         1 AN2401   0.0000
    23 N3          43.0480    17.8320   101.1100 N.ar         1 AN2401   0.0000
    24 C2          43.4990    18.9140   101.7830 C.ar         1 AN2401   0.0000
    25 N1          42.8060    19.4690   102.8060 N.ar         1 AN2401   0.0000
    26 C6          41.6050    18.9790   103.2170 C.ar         1 AN2401   0.0000
    27 N6          40.8880    19.5080   104.2280 N.pl3        1 AN2401   0.0000
    28 H3B1        34.3854    12.7342   102.9288 H            1 AN2401   0.0000
    29 H3B2        33.1138    12.7567   101.9046 H            1 AN2401   0.0000
    30 H5'1        38.5781    12.9141    99.4273 H            1 AN2401   0.0000
    31 H5'2        39.3237    11.5662    99.9693 H            1 AN2401   0.0000
    32 H4'         40.9520    12.6995    98.8813 H            1 AN2401   0.0000
    33 H3'         41.3023    13.3169   101.6624 H            1 AN2401   0.0000
    34 H7          42.7236    11.7095   101.7453 H            1 AN2401   0.0000
    35 H2'         43.0655    14.6865   101.1306 H            1 AN2401   0.0000
    36 H9          44.0847    13.3265    99.5022 H            1 AN2401   0.0000
    37 H1'         41.8919    15.8486    99.1029 H            1 AN2401   0.0000
    38 H11         39.2846    15.4169   101.5554 H            1 AN2401   0.0000
    39 H12         44.3739    19.3185   101.5166 H            1 AN2401   0.0000
    40 H13         41.2341    20.3051   104.7229 H            1 AN2401   0.0000
    41 H14         40.0098    19.1035   104.4833 H            1 AN2401   0.0000
@<TRIPOS>BOND
     1    1    2       1
     2    2    3      ar
     3    2    4      ar
     4    2    5       1
     5    5    6       1
     6    6    7      ar
     7    6    8      ar
     8    6    9       1
     9    9   10       1
    10   10   11       1
    11   11   12       1
    12   11   13       1
    13   12   17       1
    14   13   14       1
    15   13   15       1
    16   15   16       1
    17   15   17       1
    18   17   18       1
    19   18   19       1
    20   18   22       1
    21   19   20       2
    22   20   21       1
    23   21   22      ar
    24   21   26      ar
    25   22   23      ar
    26   23   24      ar
    27   24   25      ar
    28   25   26      ar
    29   26   27       1
    30    1   28       1
    31    1   29       1
    32   27   41       1
    33   27   40       1
    34   10   30       1
    35   10   31       1
    36   11   32       1
    37   13   33       1
    38   14   34       1
    39   15   35       1
    40   16   36       1
    41   17   37       1
    42   19   38       1
    43   24   39       1
@<TRIPOS>SUBSTRUCTURE
     1 AN2401      1 GROUP             4 K     AN2     0 **** AN2 K 401
