@<TRIPOS>MOLECULE
1aqb_RTL_1_ligand
   51    51     1     0     0
SMALL
NO_CHARGES


@<TRIPOS>ATOM
     1 C1           0.5070     4.5850    -7.7090 C.3          1 RTL185   0.0000
     2 C2           0.7800     6.0200    -8.2080 C.3          1 RTL185   0.0000
     3 C3          -0.0860     7.0220    -7.4650 C.3          1 RTL185   0.0000
     4 C4          -0.6820     7.0490    -6.0690 C.3          1 RTL185   0.0000
     5 C5          -0.6030     5.5930    -5.6220 C.2          1 RTL185   0.0000
     6 C6          -0.1460     4.5000    -6.3200 C.2          1 RTL185   0.0000
     7 C7          -0.2880     3.1380    -5.8050 C.2          1 RTL185   0.0000
     8 C8          -1.4670     2.5500    -5.5170 C.2          1 RTL185   0.0000
     9 C9          -1.5310     1.1750    -5.0430 C.2          1 RTL185   0.0000
    10 C10         -2.7320     0.6970    -4.5920 C.2          1 RTL185   0.0000
    11 C11         -3.0710    -0.6640    -4.1290 C.2          1 RTL185   0.0000
    12 C12         -4.4190    -0.8460    -4.0400 C.2          1 RTL185   0.0000
    13 C13         -5.2570    -2.0000    -3.7340 C.2          1 RTL185   0.0000
    14 C14         -6.4850    -2.0940    -3.1470 C.2          1 RTL185   0.0000
    15 C15         -6.8950    -3.4030    -2.6120 C.3          1 RTL185   0.0000
    16 O1          -7.3160    -3.3270    -1.3150 O.3          1 RTL185   0.0000
    17 C16          1.9440     4.0310    -7.6900 C.3          1 RTL185   0.0000
    18 C17         -0.2740     3.9230    -8.8470 C.3          1 RTL185   0.0000
    19 C18         -1.5160     5.3710    -4.4160 C.3          1 RTL185   0.0000
    20 C19         -0.2160     0.4850    -4.6850 C.3          1 RTL185   0.0000
    21 C20         -4.2090    -3.0370    -3.3310 C.3          1 RTL185   0.0000
    22 H1           0.5762     6.0717    -9.1856 H            1 RTL185   0.0000
    23 H2           1.7430     6.2425    -8.0560 H            1 RTL185   0.0000
    24 H3          -0.8861     7.1167    -8.0574 H            1 RTL185   0.0000
    25 H4           0.4553     7.8621    -7.4991 H            1 RTL185   0.0000
    26 H5          -1.6303     7.3655    -6.0910 H            1 RTL185   0.0000
    27 H6          -0.1477     7.6387    -5.4633 H            1 RTL185   0.0000
    28 H7           0.5461     2.6068    -5.6564 H            1 RTL185   0.0000
    29 H8          -2.3142     3.0688    -5.6313 H            1 RTL185   0.0000
    30 H9          -3.4813     1.3590    -4.5735 H            1 RTL185   0.0000
    31 H10         -2.3942    -1.3662    -3.9078 H            1 RTL185   0.0000
    32 H11         -4.9431    -0.0142    -4.2228 H            1 RTL185   0.0000
    33 H12         -7.0878    -1.2987    -3.0821 H            1 RTL185   0.0000
    34 H13         -6.1159    -4.0280    -2.6606 H            1 RTL185   0.0000
    35 H14         -7.6432    -3.7587    -3.1721 H            1 RTL185   0.0000
    36 H15         -8.3005    -3.1530    -1.2938 H            1 RTL185   0.0000
    37 H16          1.9309     3.0809    -7.3785 H            1 RTL185   0.0000
    38 H17          2.3302     4.0744    -8.6114 H            1 RTL185   0.0000
    39 H18          2.5040     4.5781    -7.0678 H            1 RTL185   0.0000
    40 H19         -0.4911     2.9793    -8.5974 H            1 RTL185   0.0000
    41 H20         -1.1216     4.4287    -9.0079 H            1 RTL185   0.0000
    42 H21          0.2805     3.9285    -9.6792 H            1 RTL185   0.0000
    43 H22         -1.4603     4.4152    -4.1272 H            1 RTL185   0.0000
    44 H23         -1.2258     5.9637    -3.6646 H            1 RTL185   0.0000
    45 H24         -2.4591     5.5889    -4.6673 H            1 RTL185   0.0000
    46 H25         -0.4023    -0.4477    -4.3762 H            1 RTL185   0.0000
    47 H26          0.3761     0.4575    -5.4904 H            1 RTL185   0.0000
    48 H27          0.2390     0.9935    -3.9540 H            1 RTL185   0.0000
    49 H28         -4.6638    -3.8948    -3.0916 H            1 RTL185   0.0000
    50 H29         -3.5836    -3.1933    -4.0955 H            1 RTL185   0.0000
    51 H30         -3.6940    -2.7013    -2.5423 H            1 RTL185   0.0000
@<TRIPOS>BOND
     1    1    2       1
     2    1    6       1
     3    1   17       1
     4    1   18       1
     5    2    3       1
     6    3    4       1
     7    4    5       1
     8    5    6       2
     9    5   19       1
    10    6    7       1
    11    7    8       2
    12    8    9       1
    13    9   10       2
    14    9   20       1
    15   10   11       1
    16   11   12       2
    17   12   13       1
    18   13   14       2
    19   13   21       1
    20   14   15       1
    21   15   16       1
    22    2   22       1
    23    2   23       1
    24    3   24       1
    25    3   25       1
    26    4   26       1
    27    4   27       1
    28    7   28       1
    29    8   29       1
    30   10   30       1
    31   11   31       1
    32   12   32       1
    33   14   33       1
    34   15   34       1
    35   15   35       1
    36   16   36       1
    37   17   37       1
    38   17   38       1
    39   17   39       1
    40   18   40       1
    41   18   41       1
    42   18   42       1
    43   19   43       1
    44   19   44       1
    45   19   45       1
    46   20   46       1
    47   20   47       1
    48   20   48       1
    49   21   49       1
    50   21   50       1
    51   21   51       1
@<TRIPOS>SUBSTRUCTURE
     1 RTL185      1 GROUP             4 A     RTL     0 **** RTL A 185
