@<TRIPOS>MOLECULE
4fz7_0VH_1_ligand
   52    54     1     0     0
SMALL
NO_CHARGES


@<TRIPOS>ATOM
     1 C1           0.6160    -2.2080    15.1270 C.ar         1 0VH701   0.0000
     2 C2          -0.7490    -2.5200    14.9760 C.ar         1 0VH701   0.0000
     3 C3          -1.5060    -1.6910    14.1440 C.ar         1 0VH701   0.0000
     4 C4          -0.8820    -0.6260    13.4740 C.ar         1 0VH701   0.0000
     5 N5           0.4050    -0.3540    13.6770 N.ar         1 0VH701   0.0000
     6 C6           1.1400    -1.1010    14.4960 C.ar         1 0VH701   0.0000
     7 N7           2.5150    -0.7950    14.6130 N.pl3        1 0VH701   0.0000
     8 C8          -1.6910     0.2800    12.5710 C.3          1 0VH701   0.0000
     9 C9           3.1130     0.4030    14.2900 C.ar         1 0VH701   0.0000
    10 C10          2.5670     1.4500    13.4880 C.ar         1 0VH701   0.0000
    11 C11          3.4360     2.5530    13.2300 C.ar         1 0VH701   0.0000
    12 N12          4.6480     2.6510    13.7960 N.ar         1 0VH701   0.0000
    13 N13          5.1630     1.6930    14.5390 N.ar         1 0VH701   0.0000
    14 C14          4.4490     0.5750    14.7910 C.ar         1 0VH701   0.0000
    15 C15          5.0820    -0.4640    15.6300 C.2          1 0VH701   0.0000
    16 O16          4.5030    -1.4420    16.1640 O.2          1 0VH701   0.0000
    17 N17          6.3840    -0.3010    15.8240 N.am         1 0VH701   0.0000
    18 N18          2.9680     3.6170    12.5200 N.pl3        1 0VH701   0.0000
    19 C19          1.5850     3.6480    12.0560 C.3          1 0VH701   0.0000
    20 C20          0.6880     4.2890    13.1660 C.3          1 0VH701   0.0000
    21 C21         -0.7470     4.3730    12.6030 C.3          1 0VH701   0.0000
    22 C22         -0.8320     5.0660    11.2110 C.3          1 0VH701   0.0000
    23 C23          0.1380     4.5440    10.1130 C.3          1 0VH701   0.0000
    24 C24          1.5600     4.3850    10.6980 C.3          1 0VH701   0.0000
    25 N25          1.1220     5.6650    13.5370 N.4          1 0VH701   1.0000
    26 C26         -1.1590     0.4170    11.1270 C.3          1 0VH701   0.0000
    27 H1           1.2035    -2.7885    15.6908 H            1 0VH701   0.0000
    28 H2          -1.1594    -3.3022    15.4447 H            1 0VH701   0.0000
    29 H3          -2.4854    -1.8549    14.0264 H            1 0VH701   0.0000
    30 H4           3.1107    -1.5175    14.9639 H            1 0VH701   0.0000
    31 H5          -1.7075     1.1914    12.9821 H            1 0VH701   0.0000
    32 H6          -2.6222    -0.0816    12.5244 H            1 0VH701   0.0000
    33 H7           1.6343     1.4132    13.1293 H            1 0VH701   0.0000
    34 H8           6.8928    -0.9583    16.3799 H            1 0VH701   0.0000
    35 H9           6.8568     0.4792    15.4143 H            1 0VH701   0.0000
    36 H10          3.5772     4.3831    12.3151 H            1 0VH701   0.0000
    37 H11          1.2806     2.7068    11.9094 H            1 0VH701   0.0000
    38 H12          0.6945     3.7062    13.9786 H            1 0VH701   0.0000
    39 H13         -1.3098     4.8898    13.2481 H            1 0VH701   0.0000
    40 H14         -1.1072     3.4442    12.5161 H            1 0VH701   0.0000
    41 H15         -0.6438     6.0390    11.3445 H            1 0VH701   0.0000
    42 H16         -1.7654     4.9506    10.8711 H            1 0VH701   0.0000
    43 H17          0.1624     5.1960     9.3552 H            1 0VH701   0.0000
    44 H18         -0.1844     3.6579     9.7801 H            1 0VH701   0.0000
    45 H19          2.1151     3.8680    10.0463 H            1 0VH701   0.0000
    46 H20          1.9548     5.2951    10.8238 H            1 0VH701   0.0000
    47 H21          0.5169     6.0253    14.2470 H            1 0VH701   0.0000
    48 H22          2.0604     5.6370    13.8815 H            1 0VH701   0.0000
    49 H23         -1.7546     1.0311    10.6092 H            1 0VH701   0.0000
    50 H24         -0.2317     0.7908    11.1475 H            1 0VH701   0.0000
    51 H25         -1.1464    -0.4822    10.6897 H            1 0VH701   0.0000
    52 H26          1.0800     6.2563    12.7316 H            1 0VH701   0.0000
@<TRIPOS>BOND
     1    1    2      ar
     2    1    6      ar
     3    2    3      ar
     4    3    4      ar
     5    4    5      ar
     6    4    8       1
     7    5    6      ar
     8    6    7       1
     9    7    9       1
    10    8   26       1
    11    9   10      ar
    12    9   14      ar
    13   10   11      ar
    14   11   12      ar
    15   11   18       1
    16   12   13      ar
    17   13   14      ar
    18   14   15       1
    19   15   16       2
    20   15   17      am
    21   18   19       1
    22   19   20       1
    23   19   24       1
    24   20   21       1
    25   20   25       1
    26   21   22       1
    27   22   23       1
    28   23   24       1
    29    1   27       1
    30    2   28       1
    31    3   29       1
    32    7   30       1
    33    8   31       1
    34    8   32       1
    35   10   33       1
    36   17   34       1
    37   17   35       1
    38   18   36       1
    39   19   37       1
    40   20   38       1
    41   21   39       1
    42   21   40       1
    43   22   41       1
    44   22   42       1
    45   23   43       1
    46   23   44       1
    47   24   45       1
    48   24   46       1
    49   25   47       1
    50   25   48       1
    51   26   49       1
    52   26   50       1
    53   26   51       1
    54   25   52       1
@<TRIPOS>SUBSTRUCTURE
     1 0VH701      1 GROUP             4 A     0VH     0 **** 0VH A 701
