@<TRIPOS>MOLECULE
2xtz_GSP_2_ligand
   44    46     1     0     0
SMALL
NO_CHARGES


@<TRIPOS>ATOM
     1 PG         -32.8410   -69.5320    36.3920 P.3          1 GSP1379   0.0000
     2 O3B        -32.5840   -68.0270    35.8780 O.3          1 GSP1379   0.0000
     3 S1G        -34.5400   -69.6300    36.8550 S.2          1 GSP1379   0.0000
     4 O2G        -31.9320   -69.8490    37.5830 O.co2        1 GSP1379  -1.0000
     5 O3G        -32.5040   -70.5510    35.2920 O.co2        1 GSP1379  -1.0000
     6 PB         -31.2900   -67.3930    35.1410 P.3          1 GSP1379   0.0000
     7 O1B        -30.3110   -66.9620    36.1570 O.co2        1 GSP1379   0.0000
     8 O2B        -30.7290   -68.2730    34.0920 O.co2        1 GSP1379  -1.0000
     9 PA         -32.0330   -65.7200    33.0010 P.3          1 GSP1379   0.0000
    10 O1A        -30.7040   -65.6110    32.3790 O.co2        1 GSP1379   0.0000
    11 O2A        -32.9440   -66.6990    32.3400 O.co2        1 GSP1379  -1.0000
    12 O3A        -31.9050   -66.0460    34.5560 O.3          1 GSP1379   0.0000
    13 O5'        -32.6710   -64.2590    33.0870 O.3          1 GSP1379   0.0000
    14 C5'        -34.0320   -64.0940    33.4340 C.3          1 GSP1379   0.0000
    15 C4'        -34.5950   -62.9270    32.6290 C.3          1 GSP1379   0.0000
    16 O4'        -33.8490   -61.7530    32.9200 O.3          1 GSP1379   0.0000
    17 C3'        -34.5140   -63.1650    31.1240 C.3          1 GSP1379   0.0000
    18 O3'        -35.6880   -62.5830    30.6080 O.3          1 GSP1379   0.0000
    19 C2'        -33.3460   -62.3150    30.6840 C.3          1 GSP1379   0.0000
    20 O2'        -33.5380   -61.7900    29.3940 O.3          1 GSP1379   0.0000
    21 C1'        -33.3610   -61.1920    31.7240 C.3          1 GSP1379   0.0000
    22 N9         -32.0460   -60.6540    32.0440 N.pl3        1 GSP1379   0.0000
    23 C8         -30.9170   -61.3590    32.4120 C.2          1 GSP1379   0.0000
    24 N7         -29.9380   -60.4540    32.6300 N.2          1 GSP1379   0.0000
    25 C5         -30.4280   -59.2080    32.4270 C.2          1 GSP1379   0.0000
    26 C6         -29.8630   -57.9480    32.5220 C.2          1 GSP1379   0.0000
    27 O6         -28.6750   -57.8180    32.8460 O.2          1 GSP1379   0.0000
    28 N1         -30.6460   -56.8350    32.2340 N.pl3        1 GSP1379   0.0000
    29 C2         -31.9760   -56.9790    31.8790 C.2          1 GSP1379   0.0000
    30 N2         -32.7190   -55.9120    31.5970 N.pl3        1 GSP1379   0.0000
    31 N3         -32.5210   -58.2340    31.7720 N.2          1 GSP1379   0.0000
    32 C4         -31.7580   -59.3200    32.0440 C.2          1 GSP1379   0.0000
    33 H5'1       -34.1102   -63.8990    34.4117 H            1 GSP1379   0.0000
    34 H5'2       -34.5391   -64.9286    33.2190 H            1 GSP1379   0.0000
    35 H4'        -35.5501   -62.7811    32.8870 H            1 GSP1379   0.0000
    36 H3'        -34.4129   -64.1300    30.8821 H            1 GSP1379   0.0000
    37 H5         -35.7089   -62.6990    29.6150 H            1 GSP1379   0.0000
    38 H2'        -32.4919   -62.8327    30.7330 H            1 GSP1379   0.0000
    39 H7         -33.1695   -62.4268    28.7167 H            1 GSP1379   0.0000
    40 H1'        -33.9660   -60.4555    31.4214 H            1 GSP1379   0.0000
    41 H9         -30.8389   -62.3520    32.5004 H            1 GSP1379   0.0000
    42 H10        -30.2436   -55.9209    32.2840 H            1 GSP1379   0.0000
    43 H11        -33.6792   -56.0247    31.3414 H            1 GSP1379   0.0000
    44 H12        -32.3173   -54.9973    31.6407 H            1 GSP1379   0.0000
@<TRIPOS>BOND
     1    1    2       1
     2    1    3       2
     3    1    4      ar
     4    1    5      ar
     5    2    6       1
     6    6    7      ar
     7    6    8      ar
     8    6   12       1
     9    9   10      ar
    10    9   11      ar
    11    9   12       1
    12    9   13       1
    13   13   14       1
    14   14   15       1
    15   15   16       1
    16   15   17       1
    17   16   21       1
    18   17   18       1
    19   17   19       1
    20   19   20       1
    21   19   21       1
    22   21   22       1
    23   22   23       1
    24   22   32       1
    25   23   24       2
    26   24   25       1
    27   25   26       1
    28   25   32       2
    29   26   27       2
    30   26   28       1
    31   28   29       1
    32   29   30       1
    33   29   31       2
    34   31   32       1
    35   30   44       1
    36   30   43       1
    37   28   42       1
    38   23   41       1
    39   14   33       1
    40   14   34       1
    41   15   35       1
    42   17   36       1
    43   18   37       1
    44   19   38       1
    45   20   39       1
    46   21   40       1
@<TRIPOS>SUBSTRUCTURE
     1 GSP1379     1 GROUP             4 B     GSP     0 **** GSP B1379
