@<TRIPOS>MOLECULE
1e6e_FAD_1_ligand
   84    89     1     0     0
SMALL
NO_CHARGES


@<TRIPOS>ATOM
     1 PA           7.2290    60.6750   124.9570 P.3          1 FAD461   0.0000
     2 O1A          6.1300    60.0260   124.1800 O.co2        1 FAD461   0.0000
     3 O2A          8.5310    60.4130   124.6950 O.co2        1 FAD461  -1.0000
     4 O5B          7.0050    60.0030   126.3100 O.3          1 FAD461   0.0000
     5 C5B          5.7510    60.0090   127.0670 C.3          1 FAD461   0.0000
     6 C4B          5.9930    58.9170   128.1300 C.3          1 FAD461   0.0000
     7 O4B          4.7980    58.8590   128.9870 O.3          1 FAD461   0.0000
     8 C3B          6.1930    57.4860   127.5780 C.3          1 FAD461   0.0000
     9 O3B          7.3290    56.8050   128.0300 O.3          1 FAD461   0.0000
    10 C2B          4.8310    56.8610   127.8310 C.3          1 FAD461   0.0000
    11 O2B          4.8220    55.4600   127.8430 O.3          1 FAD461   0.0000
    12 C1B          4.5150    57.4310   129.1810 C.3          1 FAD461   0.0000
    13 N9A          3.1080    57.4270   129.6000 N.pl3        1 FAD461   0.0000
    14 C8A          1.9950    57.5980   128.7940 C.2          1 FAD461   0.0000
    15 N7A          0.8560    57.5370   129.4730 N.2          1 FAD461   0.0000
    16 C5A          1.2320    57.3170   130.7800 C.ar         1 FAD461   0.0000
    17 C6A          0.4430    57.1480   132.0200 C.ar         1 FAD461   0.0000
    18 N6A         -0.8620    57.1860   132.0690 N.pl3        1 FAD461   0.0000
    19 N1A          1.1910    56.9410   133.1640 N.ar         1 FAD461   0.0000
    20 C2A          2.5600    56.8920   133.1540 C.ar         1 FAD461   0.0000
    21 N3A          3.3540    57.0320   132.0690 N.ar         1 FAD461   0.0000
    22 C4A          2.6460    57.2430   130.9020 C.ar         1 FAD461   0.0000
    23 N1          13.0140    63.6150   117.7590 N.2          1 FAD461   0.0000
    24 C2          14.2840    63.8930   117.4540 C.2          1 FAD461   0.0000
    25 O2          14.8560    64.8120   117.9430 O.2          1 FAD461   0.0000
    26 N3          15.0330    63.1010   116.5210 N.pl3        1 FAD461   0.0000
    27 C4          14.4750    62.0030   115.8860 C.2          1 FAD461   0.0000
    28 O4          15.1390    61.3580   115.1010 O.2          1 FAD461   0.0000
    29 C4X         13.0940    61.6880   116.2050 C.2          1 FAD461   0.0000
    30 N5          12.4970    60.6250   115.6080 N.2          1 FAD461   0.0000
    31 C5X         11.1830    60.3510   115.9280 C.ar         1 FAD461   0.0000
    32 C6          10.5620    59.2330   115.2910 C.ar         1 FAD461   0.0000
    33 C7           9.2460    58.8880   115.5560 C.ar         1 FAD461   0.0000
    34 C7M          8.6220    57.6960   114.8580 C.3          1 FAD461   0.0000
    35 C8           8.4640    59.6820   116.5130 C.ar         1 FAD461   0.0000
    36 C8M          7.0300    59.3640   116.8540 C.3          1 FAD461   0.0000
    37 C9           9.0670    60.7870   117.1440 C.ar         1 FAD461   0.0000
    38 C9A         10.4130    61.1290   116.8630 C.ar         1 FAD461   0.0000
    39 N10         11.0900    62.2630   117.4820 N.pl3        1 FAD461   0.0000
    40 C10         12.3840    62.5500   117.1780 C.2          1 FAD461   0.0000
    41 C1'         10.2900    63.0680   118.4460 C.3          1 FAD461   0.0000
    42 C2'         10.5810    62.6830   119.9260 C.3          1 FAD461   0.0000
    43 O2'         10.3830    61.2860   120.0620 O.3          1 FAD461   0.0000
    44 C3'          9.6170    63.4920   120.7840 C.3          1 FAD461   0.0000
    45 O3'          9.8560    64.8870   120.6150 O.3          1 FAD461   0.0000
    46 C4'          9.7580    63.1620   122.2710 C.3          1 FAD461   0.0000
    47 O4'          9.5570    61.7500   122.5240 O.3          1 FAD461   0.0000
    48 C5'          8.7180    63.9880   123.0240 C.3          1 FAD461   0.0000
    49 O5'          8.8160    63.6030   124.5600 O.3          1 FAD461   0.0000
    50 P            7.5770    63.4950   125.4380 P.3          1 FAD461   0.0000
    51 O1P          8.2220    63.5810   126.8520 O.co2        1 FAD461   0.0000
    52 O2P          6.5980    64.4390   125.2000 O.co2        1 FAD461  -1.0000
    53 O3P          6.8830    62.2050   125.2850 O.3          1 FAD461   0.0000
    54 H5B1         4.9747    59.7765   126.4811 H            1 FAD461   0.0000
    55 H5B2         5.5915    60.8991   127.4939 H            1 FAD461   0.0000
    56 H4B          6.7850    59.1689   128.6862 H            1 FAD461   0.0000
    57 H3B          6.2877    57.5729   126.5863 H            1 FAD461   0.0000
    58 H5           7.2896    56.7147   129.0251 H            1 FAD461   0.0000
    59 H2B          4.1728    57.1985   127.1580 H            1 FAD461   0.0000
    60 H7           5.4301    55.1289   128.5645 H            1 FAD461   0.0000
    61 H1B          5.1041    57.0378   129.8869 H            1 FAD461   0.0000
    62 H8A          2.0440    57.7509   127.8070 H            1 FAD461   0.0000
    63 H6A1        -1.3333    57.0640   132.9425 H            1 FAD461   0.0000
    64 H6A2        -1.3896    57.3371   131.2330 H            1 FAD461   0.0000
    65 H2A          3.0145    56.7383   134.0314 H            1 FAD461   0.0000
    66 H13         15.9819    63.3477   116.3240 H            1 FAD461   0.0000
    67 H14         11.0887    58.6871   114.6393 H            1 FAD461   0.0000
    68 H7M1         7.6753    57.5896   115.1622 H            1 FAD461   0.0000
    69 H7M2         8.6399    57.8420   113.8689 H            1 FAD461   0.0000
    70 H7M3         9.1391    56.8700   115.0825 H            1 FAD461   0.0000
    71 H8M1         6.6915    60.0264   117.5223 H            1 FAD461   0.0000
    72 H8M2         6.4720    59.4114   116.0255 H            1 FAD461   0.0000
    73 H8M3         6.9755    58.4432   117.2403 H            1 FAD461   0.0000
    74 H21          8.5414    61.3344   117.7952 H            1 FAD461   0.0000
    75 H1'1         9.3187    62.9189   118.2605 H            1 FAD461   0.0000
    76 H1'2        10.5095    64.0350   118.3166 H            1 FAD461   0.0000
    77 H2'         11.5245    62.9177   120.1599 H            1 FAD461   0.0000
    78 H25         10.0813    61.0812   120.9931 H            1 FAD461   0.0000
    79 H3'          8.6812    63.2884   120.4963 H            1 FAD461   0.0000
    80 H27          9.2944    65.2327   119.8633 H            1 FAD461   0.0000
    81 H4'         10.6721    63.4241   122.5803 H            1 FAD461   0.0000
    82 H29          8.7845    61.6297   123.1475 H            1 FAD461   0.0000
    83 H5'1         7.8029    63.7802   122.6785 H            1 FAD461   0.0000
    84 H5'2         8.9059    64.9629   122.9046 H            1 FAD461   0.0000
@<TRIPOS>BOND
     1    1    2      ar
     2    1    3      ar
     3    1    4       1
     4    1   53       1
     5    4    5       1
     6    5    6       1
     7    6    7       1
     8    6    8       1
     9    7   12       1
    10    8    9       1
    11    8   10       1
    12   10   11       1
    13   10   12       1
    14   12   13       1
    15   13   14       1
    16   13   22       1
    17   14   15       2
    18   15   16       1
    19   16   17      ar
    20   16   22      ar
    21   17   18       1
    22   17   19      ar
    23   19   20      ar
    24   20   21      ar
    25   21   22      ar
    26   23   24       1
    27   23   40       2
    28   24   25       2
    29   24   26       1
    30   26   27       1
    31   27   28       2
    32   27   29       1
    33   29   30       2
    34   29   40       1
    35   30   31       1
    36   31   32      ar
    37   31   38      ar
    38   32   33      ar
    39   33   34       1
    40   33   35      ar
    41   35   36       1
    42   35   37      ar
    43   37   38      ar
    44   38   39       1
    45   39   40       1
    46   39   41       1
    47   41   42       1
    48   42   43       1
    49   42   44       1
    50   44   45       1
    51   44   46       1
    52   46   47       1
    53   46   48       1
    54   48   49       1
    55   49   50       1
    56   50   51      ar
    57   50   52      ar
    58   50   53       1
    59   48   84       1
    60    5   54       1
    61    5   55       1
    62    6   56       1
    63    8   57       1
    64    9   58       1
    65   10   59       1
    66   11   60       1
    67   12   61       1
    68   14   62       1
    69   18   63       1
    70   18   64       1
    71   20   65       1
    72   26   66       1
    73   32   67       1
    74   34   68       1
    75   34   69       1
    76   34   70       1
    77   36   71       1
    78   36   72       1
    79   36   73       1
    80   37   74       1
    81   41   75       1
    82   41   76       1
    83   42   77       1
    84   43   78       1
    85   44   79       1
    86   45   80       1
    87   46   81       1
    88   47   82       1
    89   48   83       1
@<TRIPOS>SUBSTRUCTURE
     1 FAD461      1 GROUP             4 A     FAD     0 **** FAD A 461
