@<TRIPOS>MOLECULE
2ldb_NAD_4_ligand
   70    74     1     0     0
SMALL
NO_CHARGES


@<TRIPOS>ATOM
     1 PA           5.0340   -28.3140    -7.7980 P.3          1 NAD13    0.0000
     2 O1A          5.3590   -29.7540    -7.4250 O.co2        1 NAD13    0.0000
     3 O2A          3.9700   -27.8160    -6.8950 O.co2        1 NAD13   -1.0000
     4 O5B          4.5650   -28.3780    -9.3500 O.3          1 NAD13    0.0000
     5 C5B          4.1590   -27.1270    -9.9740 C.3          1 NAD13    0.0000
     6 C4B          3.1300   -27.3440   -10.9920 C.3          1 NAD13    0.0000
     7 O4B          3.7130   -27.4970   -12.3290 O.3          1 NAD13    0.0000
     8 C3B          2.0560   -28.4260   -10.8650 C.3          1 NAD13    0.0000
     9 O3B          0.7890   -27.8230   -10.4940 O.3          1 NAD13    0.0000
    10 C2B          1.9950   -29.0240   -12.2660 C.3          1 NAD13    0.0000
    11 O2B          0.7400   -29.4970   -12.7400 O.3          1 NAD13    0.0000
    12 C1B          2.5460   -27.8270   -13.1320 C.3          1 NAD13    0.0000
    13 N9A          3.1380   -28.3300   -14.3730 N.pl3        1 NAD13    0.0000
    14 C8A          4.0870   -29.3020   -14.4660 C.2          1 NAD13    0.0000
    15 N7A          4.3500   -29.6170   -15.7420 N.2          1 NAD13    0.0000
    16 C5A          3.5470   -28.7890   -16.4880 C.ar         1 NAD13    0.0000
    17 C6A          3.4670   -28.5700   -17.8750 C.ar         1 NAD13    0.0000
    18 N6A          4.1620   -29.2940   -18.7500 N.pl3        1 NAD13    0.0000
    19 N1A          2.6240   -27.5900   -18.3000 N.ar         1 NAD13    0.0000
    20 C2A          1.8640   -26.9020   -17.3540 C.ar         1 NAD13    0.0000
    21 N3A          1.8820   -27.0360   -16.0580 N.ar         1 NAD13    0.0000
    22 C4A          2.7830   -27.9770   -15.6640 C.ar         1 NAD13    0.0000
    23 O3           6.3260   -27.4170    -7.8840 O.3          1 NAD13    0.0000
    24 PN           6.8630   -26.1920    -7.0710 P.3          1 NAD13    0.0000
    25 O1N          7.4490   -26.5960    -5.7350 O.co2        1 NAD13    0.0000
    26 O2N          5.7350   -25.2480    -6.8300 O.co2        1 NAD13   -1.0000
    27 O5D          8.0230   -25.5940    -8.0280 O.3          1 NAD13    0.0000
    28 C5D          8.2690   -26.0410    -9.3950 C.3          1 NAD13    0.0000
    29 C4D          9.6810   -25.5490    -9.7000 C.3          1 NAD13    0.0000
    30 O4D          9.8020   -24.3710    -8.7450 O.3          1 NAD13    0.0000
    31 C3D         10.7840   -26.5410    -9.2610 C.3          1 NAD13    0.0000
    32 O3D         11.8040   -26.6770   -10.2580 O.3          1 NAD13    0.0000
    33 C2D         11.3730   -25.8980    -8.0110 C.3          1 NAD13    0.0000
    34 O2D         12.7230   -26.1380    -7.6730 O.3          1 NAD13    0.0000
    35 C1D         11.1810   -24.4170    -8.3900 C.3          1 NAD13    0.0000
    36 N1N         11.6310   -23.5400    -7.3280 N.ar         1 NAD13    1.0000
    37 C2N         12.6460   -22.6810    -7.6300 C.ar         1 NAD13    0.0000
    38 C3N         13.1470   -21.8570    -6.6790 C.ar         1 NAD13    0.0000
    39 C7N         14.2390   -20.7710    -6.8870 C.2          1 NAD13    0.0000
    40 O7N         14.6470   -20.1610    -5.8790 O.2          1 NAD13    0.0000
    41 N7N         14.6040   -20.4580    -8.1280 N.am         1 NAD13    0.0000
    42 C4N         12.6110   -21.8060    -5.3750 C.ar         1 NAD13    0.0000
    43 C5N         11.6510   -22.7720    -5.1430 C.ar         1 NAD13    0.0000
    44 C6N         11.1670   -23.7120    -6.0030 C.ar         1 NAD13    0.0000
    45 H5B1         4.9570   -26.7043   -10.4036 H            1 NAD13    0.0000
    46 H5B2         3.7962   -26.5158    -9.2705 H            1 NAD13    0.0000
    47 H4B          2.6227   -26.4831   -11.0309 H            1 NAD13    0.0000
    48 H3B          2.3280   -29.1180   -10.1963 H            1 NAD13    0.0000
    49 H5           0.5141   -27.1662   -11.1962 H            1 NAD13    0.0000
    50 H2B          2.6526   -29.7757   -12.3152 H            1 NAD13    0.0000
    51 H7           0.2589   -28.7550   -13.2069 H            1 NAD13    0.0000
    52 H1B          1.9009   -27.0730   -13.2558 H            1 NAD13    0.0000
    53 H8A          4.5329   -29.7284   -13.6790 H            1 NAD13    0.0000
    54 H6A1         4.0794   -29.1092   -19.7293 H            1 NAD13    0.0000
    55 H6A2         4.7665   -30.0225   -18.4279 H            1 NAD13    0.0000
    56 H2A          1.2263   -26.2216   -17.7152 H            1 NAD13    0.0000
    57 H5D1         7.6077   -25.6348   -10.0256 H            1 NAD13    0.0000
    58 H5D2         8.2195   -27.0379    -9.4567 H            1 NAD13    0.0000
    59 H4D          9.7840   -25.2708   -10.6550 H            1 NAD13    0.0000
    60 H3D         10.3867   -27.4323    -9.0424 H            1 NAD13    0.0000
    61 H17         11.3975   -27.0148   -11.1069 H            1 NAD13    0.0000
    62 H2D         10.7935   -26.1145    -7.2253 H            1 NAD13    0.0000
    63 H19         12.9919   -27.0446    -7.9981 H            1 NAD13    0.0000
    64 H1D         11.7242   -24.2272    -9.2079 H            1 NAD13    0.0000
    65 H2N         13.0216   -22.6594    -8.5565 H            1 NAD13    0.0000
    66 H7N1        15.3050   -19.7618    -8.2824 H            1 NAD13    0.0000
    67 H7N2        14.1773   -20.9191    -8.9060 H            1 NAD13    0.0000
    68 H4N         12.8971   -21.1380    -4.6880 H            1 NAD13    0.0000
    69 H5N         11.2597   -22.7830    -4.2228 H            1 NAD13    0.0000
    70 H6N         10.5481   -24.4470    -5.7260 H            1 NAD13    0.0000
@<TRIPOS>BOND
     1    1    2      ar
     2    1    3      ar
     3    1    4       1
     4    1   23       1
     5    4    5       1
     6    5    6       1
     7    6    7       1
     8    6    8       1
     9    7   12       1
    10    8    9       1
    11    8   10       1
    12   10   11       1
    13   10   12       1
    14   12   13       1
    15   13   14       1
    16   13   22       1
    17   14   15       2
    18   15   16       1
    19   16   17      ar
    20   16   22      ar
    21   17   18       1
    22   17   19      ar
    23   19   20      ar
    24   20   21      ar
    25   21   22      ar
    26   23   24       1
    27   24   25      ar
    28   24   26      ar
    29   24   27       1
    30   27   28       1
    31   28   29       1
    32   29   30       1
    33   29   31       1
    34   30   35       1
    35   31   32       1
    36   31   33       1
    37   33   34       1
    38   33   35       1
    39   35   36       1
    40   36   37      ar
    41   36   44      ar
    42   37   38      ar
    43   38   39       1
    44   38   42      ar
    45   39   40       2
    46   39   41      am
    47   42   43      ar
    48   43   44      ar
    49   44   70       1
    50    5   45       1
    51    5   46       1
    52    6   47       1
    53    8   48       1
    54    9   49       1
    55   10   50       1
    56   11   51       1
    57   12   52       1
    58   14   53       1
    59   18   54       1
    60   18   55       1
    61   20   56       1
    62   43   69       1
    63   28   57       1
    64   28   58       1
    65   29   59       1
    66   31   60       1
    67   32   61       1
    68   33   62       1
    69   34   63       1
    70   35   64       1
    71   37   65       1
    72   41   66       1
    73   41   67       1
    74   42   68       1
@<TRIPOS>SUBSTRUCTURE
     1 NAD13       1 GROUP             4 D     NAD     0 **** NAD D  13
