@<TRIPOS>MOLECULE
3reo_SAH_6_ligand
   46    48     1     0     0
SMALL
NO_CHARGES


@<TRIPOS>ATOM
     1 N          -28.5840   -10.7540    -5.9610 N.4          1 SAH370   1.0000
     2 CA         -28.4340   -10.8280    -4.4840 C.3          1 SAH370   0.0000
     3 CB         -27.2460   -11.6790    -3.9800 C.3          1 SAH370   0.0000
     4 CG         -25.8690   -11.2530    -4.4970 C.3          1 SAH370   0.0000
     5 SD         -24.6550   -12.3740    -3.7930 S.3          1 SAH370   0.0000
     6 C          -28.3020    -9.4280    -3.9730 C.2          1 SAH370   0.0000
     7 O          -28.5830    -9.2330    -2.7900 O.co2        1 SAH370   0.0000
     8 OXT        -27.9420    -8.4410    -4.6650 O.co2        1 SAH370  -1.0000
     9 C5'        -24.3120   -13.4820    -5.1310 C.3          1 SAH370   0.0000
    10 C4'        -25.4210   -14.5560    -5.2020 C.3          1 SAH370   0.0000
    11 O4'        -25.1280   -15.3620    -6.3570 O.3          1 SAH370   0.0000
    12 C3'        -25.4770   -15.4970    -4.0000 C.3          1 SAH370   0.0000
    13 O3'        -26.8200   -15.5890    -3.4380 O.3          1 SAH370   0.0000
    14 C2'        -25.0460   -16.8150    -4.5940 C.3          1 SAH370   0.0000
    15 O2'        -25.5850   -17.9280    -3.8950 O.3          1 SAH370   0.0000
    16 C1'        -25.5380   -16.6720    -6.0060 C.3          1 SAH370   0.0000
    17 N9         -24.8040   -17.6140    -6.8770 N.pl3        1 SAH370   0.0000
    18 C8         -23.4350   -17.7990    -6.8970 C.2          1 SAH370   0.0000
    19 N7         -23.0790   -18.7050    -7.8470 N.2          1 SAH370   0.0000
    20 C5         -24.2370   -19.0800    -8.4110 C.ar         1 SAH370   0.0000
    21 C6         -24.5720   -20.0040    -9.4710 C.ar         1 SAH370   0.0000
    22 N6         -23.5470   -20.7100   -10.0360 N.pl3        1 SAH370   0.0000
    23 N1         -25.8830   -20.1080    -9.8230 N.ar         1 SAH370   0.0000
    24 C2         -26.9080   -19.4540    -9.1970 C.ar         1 SAH370   0.0000
    25 N3         -26.6690   -18.5510    -8.2090 N.ar         1 SAH370   0.0000
    26 C4         -25.3790   -18.3390    -7.8030 C.ar         1 SAH370   0.0000
    27 H1         -29.3746   -10.1851    -6.1877 H            1 SAH370   0.0000
    28 H2         -27.7594   -10.3531    -6.3601 H            1 SAH370   0.0000
    29 HA         -29.2747   -11.2167    -4.1070 H            1 SAH370   0.0000
    30 HB1        -27.4025   -12.6255    -4.2621 H            1 SAH370   0.0000
    31 HB2        -27.2306   -11.6270    -2.9815 H            1 SAH370   0.0000
    32 HG1        -25.6728   -10.3148    -4.2118 H            1 SAH370   0.0000
    33 HG2        -25.8470   -11.3094    -5.4952 H            1 SAH370   0.0000
    34 H5'1       -23.4279   -13.9243    -4.9802 H            1 SAH370   0.0000
    35 H5'2       -24.2867   -12.9707    -5.9900 H            1 SAH370   0.0000
    36 H4'        -26.3092   -14.1121    -5.3207 H            1 SAH370   0.0000
    37 H3'        -24.8270   -15.2034    -3.2990 H            1 SAH370   0.0000
    38 H12        -27.4496   -15.9346    -4.1339 H            1 SAH370   0.0000
    39 H2'        -24.0476   -16.8714    -4.5924 H            1 SAH370   0.0000
    40 H14        -26.5838   -17.8885    -3.9248 H            1 SAH370   0.0000
    41 H1'        -26.5288   -16.7885    -6.0742 H            1 SAH370   0.0000
    42 H16        -22.7912   -17.3291    -6.2931 H            1 SAH370   0.0000
    43 H17        -23.7340   -21.3601   -10.7725 H            1 SAH370   0.0000
    44 H18        -22.6101   -20.5764    -9.7129 H            1 SAH370   0.0000
    45 H19        -27.8509   -19.6434    -9.4710 H            1 SAH370   0.0000
    46 H20        -28.7189   -11.6740    -6.3289 H            1 SAH370   0.0000
@<TRIPOS>BOND
     1    1    2       1
     2    2    3       1
     3    2    6       1
     4    3    4       1
     5    4    5       1
     6    5    9       1
     7    6    7      ar
     8    6    8      ar
     9    9   10       1
    10   10   11       1
    11   10   12       1
    12   11   16       1
    13   12   13       1
    14   12   14       1
    15   14   15       1
    16   14   16       1
    17   16   17       1
    18   17   18       1
    19   17   26       1
    20   18   19       2
    21   19   20       1
    22   20   21      ar
    23   20   26      ar
    24   21   22       1
    25   21   23      ar
    26   23   24      ar
    27   24   25      ar
    28   25   26      ar
    29    1   27       1
    30    1   28       1
    31    2   29       1
    32    3   30       1
    33    3   31       1
    34    4   32       1
    35    4   33       1
    36    1   46       1
    37    9   34       1
    38    9   35       1
    39   10   36       1
    40   12   37       1
    41   13   38       1
    42   14   39       1
    43   15   40       1
    44   16   41       1
    45   18   42       1
    46   22   43       1
    47   22   44       1
    48   24   45       1
@<TRIPOS>SUBSTRUCTURE
     1 SAH370      1 GROUP             4 C     SAH     0 **** SAH C 370
