@<TRIPOS>MOLECULE
1zga_HMK_1_ligand
   34    38     1     0     0
SMALL
NO_CHARGES


@<TRIPOS>ATOM
     1 C1         102.0730    73.2190    32.8720 C.3          1 HMK365   0.0000
     2 O1         101.6120    73.5040    31.5910 O.3          1 HMK365   0.0000
     3 C2         102.2810    74.5590    30.9070 C.ar         1 HMK365   0.0000
     4 C3         102.7460    75.7800    31.6580 C.ar         1 HMK365   0.0000
     5 C4         102.4880    75.8720    33.2270 C.3          1 HMK365   0.0000
     6 C5         101.7670    74.5400    33.8500 C.3          1 HMK365   0.0000
     7 C6         102.5340    74.5070    29.4610 C.ar         1 HMK365   0.0000
     8 C7         103.2140    75.5920    28.7370 C.ar         1 HMK365   0.0000
     9 C8         103.6490    76.7750    29.5090 C.ar         1 HMK365   0.0000
    10 C9         103.4180    76.8710    30.9450 C.ar         1 HMK365   0.0000
    11 O2         101.5610    76.9200    33.3130 O.3          1 HMK365   0.0000
    12 O5         102.3610    73.9830    35.0340 O.3          1 HMK365   0.0000
    13 O6         103.4400    75.5130    27.3970 O.3          1 HMK365   0.0000
    14 C10        100.3170    76.5490    33.7790 C.ar         1 HMK365   0.0000
    15 C11        100.3790    75.1210    34.1280 C.ar         1 HMK365   0.0000
    16 C12         99.1280    77.3660    33.9470 C.ar         1 HMK365   0.0000
    17 C13         97.9630    76.6900    34.4880 C.ar         1 HMK365   0.0000
    18 C14         97.9850    75.2720    34.8480 C.ar         1 HMK365   0.0000
    19 C15         99.1920    74.4420    34.6820 C.ar         1 HMK365   0.0000
    20 O3          96.7170    77.2020    34.7500 O.3          1 HMK365   0.0000
    21 C16         95.9250    76.1270    35.2800 C.3          1 HMK365   0.0000
    22 O4          96.7390    74.9360    35.3310 O.3          1 HMK365   0.0000
    23 H1         103.0564    73.0397    32.8448 H            1 HMK365   0.0000
    24 H2         101.5975    72.4158    33.2310 H            1 HMK365   0.0000
    25 H3         103.3298    76.0920    33.7200 H            1 HMK365   0.0000
    26 H4         102.2323    73.7028    28.9489 H            1 HMK365   0.0000
    27 H5         104.1114    77.5251    29.0363 H            1 HMK365   0.0000
    28 H6         103.7186    77.6830    31.4453 H            1 HMK365   0.0000
    29 H7         102.7305    74.7200    35.5999 H            1 HMK365   0.0000
    30 H8         103.9040    76.2615    26.9232 H            1 HMK365   0.0000
    31 H9          99.1129    78.3360    33.7045 H            1 HMK365   0.0000
    32 H10         99.2055    73.4735    34.9308 H            1 HMK365   0.0000
    33 H11         95.1336    75.9690    34.6895 H            1 HMK365   0.0000
    34 H12         95.6126    76.3610    36.2007 H            1 HMK365   0.0000
@<TRIPOS>BOND
     1    1    2       1
     2    1    6       1
     3    2    3       1
     4    3    4      ar
     5    3    7      ar
     6    4    5       1
     7    4   10      ar
     8    5    6       1
     9    5   11       1
    10    6   12       1
    11    6   15       1
    12    7    8      ar
    13    8    9      ar
    14    8   13       1
    15    9   10      ar
    16   11   14       1
    17   14   15      ar
    18   14   16      ar
    19   15   19      ar
    20   16   17      ar
    21   17   18      ar
    22   17   20       1
    23   18   19      ar
    24   18   22       1
    25   20   21       1
    26   21   22       1
    27    1   23       1
    28    1   24       1
    29    5   25       1
    30    7   26       1
    31    9   27       1
    32   10   28       1
    33   12   29       1
    34   13   30       1
    35   16   31       1
    36   19   32       1
    37   21   33       1
    38   21   34       1
@<TRIPOS>SUBSTRUCTURE
     1 HMK365      1 GROUP             4 A     HMK     0 **** HMK A 365
