@<TRIPOS>MOLECULE
2bwp_PLG_1_ligand
   34    34     1     0     0
SMALL
NO_CHARGES


@<TRIPOS>ATOM
     1 N1          22.1610     6.4970    10.7830 N.ar         1 PLG500   1.0000
     2 C2          23.0760     5.8260    10.0550 C.ar         1 PLG500   0.0000
     3 C2A         22.5280     4.9650     8.8930 C.3          1 PLG500   0.0000
     4 C3          24.4730     5.9320    10.3940 C.ar         1 PLG500   0.0000
     5 O3          25.4440     5.2510     9.6960 O.3          1 PLG500   0.0000
     6 C4          24.8760     6.7550    11.4690 C.ar         1 PLG500   0.0000
     7 C4A         26.3630     6.9260    11.8930 C.3          1 PLG500   0.0000
     8 C5          23.8500     7.4280    12.1620 C.ar         1 PLG500   0.0000
     9 C6          22.5130     7.2710    11.8060 C.ar         1 PLG500   0.0000
    10 C5A         24.0890     8.3410    13.3380 C.3          1 PLG500   0.0000
    11 OP4         24.5470     9.5270    12.8540 O.3          1 PLG500   0.0000
    12 P           25.1570    10.5560    13.8250 P.3          1 PLG500   0.0000
    13 OP1         24.8160    12.0130    13.2670 O.co2        1 PLG500   0.0000
    14 OP2         26.7880    10.4210    13.6860 O.co2        1 PLG500  -1.0000
    15 OP3         24.6690    10.3440    15.2030 O.co2        1 PLG500  -1.0000
    16 C           28.7890     5.1020     9.9110 C.2          1 PLG500   0.0000
    17 O           29.6840     5.4580     9.0830 O.co2        1 PLG500   0.0000
    18 OXT         28.1730     4.0050     9.9400 O.co2        1 PLG500  -1.0000
    19 CA          28.4120     6.0970    11.0100 C.3          1 PLG500   0.0000
    20 N           27.1480     5.6910    11.6650 N.4          1 PLG500   1.0000
    21 H2A1        23.2882     4.5151     8.4242 H            1 PLG500   0.0000
    22 H2A2        21.9040     4.2731     9.2563 H            1 PLG500   0.0000
    23 H2A3        22.0375     5.5501     8.2471 H            1 PLG500   0.0000
    24 H4          25.1884     4.6620     8.9293 H            1 PLG500   0.0000
    25 H4A1        26.3974     7.1560    12.8656 H            1 PLG500   0.0000
    26 H4A2        26.7676     7.6692    11.3602 H            1 PLG500   0.0000
    27 H7          21.8058     7.7479    12.3280 H            1 PLG500   0.0000
    28 H5A1        24.7691     7.9373    13.9499 H            1 PLG500   0.0000
    29 H5A2        23.2345     8.4840    13.8374 H            1 PLG500   0.0000
    30 HA1         28.2970     7.0048    10.6068 H            1 PLG500   0.0000
    31 HA2         29.1421     6.1256    11.6927 H            1 PLG500   0.0000
    32 H12         26.6399     5.0654    11.0731 H            1 PLG500   0.0000
    33 H13         27.3419     5.2413    12.5369 H            1 PLG500   0.0000
    34 H14         21.1929     6.4107    10.5479 H            1 PLG500   0.0000
@<TRIPOS>BOND
     1    1    2      ar
     2    1    9      ar
     3    2    3       1
     4    2    4      ar
     5    4    5       1
     6    4    6      ar
     7    6    7       1
     8    6    8      ar
     9    7   20       1
    10    8    9      ar
    11    8   10       1
    12   10   11       1
    13   11   12       1
    14   12   13      ar
    15   12   14      ar
    16   12   15      ar
    17   16   17      ar
    18   16   18      ar
    19   16   19       1
    20   19   20       1
    21    3   21       1
    22    3   22       1
    23    3   23       1
    24    5   24       1
    25    7   25       1
    26    7   26       1
    27    9   27       1
    28   10   28       1
    29   10   29       1
    30   20   32       1
    31   19   31       1
    32   19   30       1
    33   20   33       1
    34    1   34       1
@<TRIPOS>SUBSTRUCTURE
     1 PLG500      1 GROUP             4 A     PLG     0 **** PLG A 500
