@<TRIPOS>MOLECULE
2eg5_SAH_4_ligand
   46    48     1     0     0
SMALL
NO_CHARGES


@<TRIPOS>ATOM
     1 N           15.1240    54.2150    51.2340 N.4          1 SAH3501   1.0000
     2 CA          15.6370    54.1770    49.8150 C.3          1 SAH3501   0.0000
     3 CB          15.2920    55.4220    49.0140 C.3          1 SAH3501   0.0000
     4 CG          13.8720    55.3140    48.5190 C.3          1 SAH3501   0.0000
     5 SD          13.5780    56.4850    47.2060 S.3          1 SAH3501   0.0000
     6 C           17.1410    53.9850    49.7570 C.2          1 SAH3501   0.0000
     7 O           17.8680    54.2800    50.6850 O.co2        1 SAH3501   0.0000
     8 OXT         17.6640    53.5110    48.7620 O.co2        1 SAH3501  -1.0000
     9 C5'         12.4620    57.5770    48.1110 C.3          1 SAH3501   0.0000
    10 C4'         11.1640    56.8450    48.4600 C.3          1 SAH3501   0.0000
    11 O4'         10.3820    57.6360    49.3250 O.3          1 SAH3501   0.0000
    12 C3'         10.2800    56.4960    47.2500 C.3          1 SAH3501   0.0000
    13 O3'         10.0660    55.0960    47.1870 O.3          1 SAH3501   0.0000
    14 C2'          8.9730    57.2260    47.5070 C.3          1 SAH3501   0.0000
    15 O2'          7.8860    56.5010    46.9810 O.3          1 SAH3501   0.0000
    16 C1'          9.0120    57.3540    49.0340 C.3          1 SAH3501   0.0000
    17 N9           8.1340    58.3730    49.6370 N.pl3        1 SAH3501   0.0000
    18 C8           8.0180    59.6750    49.2500 C.2          1 SAH3501   0.0000
    19 N7           7.1320    60.2950    50.0640 N.2          1 SAH3501   0.0000
    20 C5           6.6720    59.3840    50.9690 C.ar         1 SAH3501   0.0000
    21 C6           5.7550    59.4810    52.0180 C.ar         1 SAH3501   0.0000
    22 N6           5.1440    60.6530    52.2240 N.pl3        1 SAH3501   0.0000
    23 N1           5.5050    58.3390    52.8020 N.ar         1 SAH3501   0.0000
    24 C2           6.1310    57.1100    52.5570 C.ar         1 SAH3501   0.0000
    25 N3           7.0340    57.0520    51.4990 N.ar         1 SAH3501   0.0000
    26 C4           7.2990    58.1580    50.7180 C.ar         1 SAH3501   0.0000
    27 H1          15.3828    53.3715    51.7047 H            1 SAH3501   0.0000
    28 H2          15.5217    54.9986    51.7113 H            1 SAH3501   0.0000
    29 HA          15.2127    53.3947    49.3590 H            1 SAH3501   0.0000
    30 HB1         15.9131    55.5010    48.2343 H            1 SAH3501   0.0000
    31 HB2         15.3830    56.2302    49.5959 H            1 SAH3501   0.0000
    32 HG1         13.2448    55.5024    49.2747 H            1 SAH3501   0.0000
    33 HG2         13.7124    54.3882    48.1763 H            1 SAH3501   0.0000
    34 H5'1        12.2490    58.3731    47.5445 H            1 SAH3501   0.0000
    35 H5'2        12.9075    57.8776    48.9543 H            1 SAH3501   0.0000
    36 H4'         11.3984    55.9964    48.9344 H            1 SAH3501   0.0000
    37 H3'         10.7016    56.8228    46.4042 H            1 SAH3501   0.0000
    38 H12          9.6111    54.7904    48.0235 H            1 SAH3501   0.0000
    39 H2'          9.0061    58.1347    47.0908 H            1 SAH3501   0.0000
    40 H14          7.5356    55.8739    47.6767 H            1 SAH3501   0.0000
    41 H1'          8.7821    56.4653    49.4307 H            1 SAH3501   0.0000
    42 H16          8.5072    60.1020    48.4895 H            1 SAH3501   0.0000
    43 H17          4.4833    60.7483    52.9685 H            1 SAH3501   0.0000
    44 H18          5.3480    61.4338    51.6335 H            1 SAH3501   0.0000
    45 H19          5.9370    56.3064    53.1196 H            1 SAH3501   0.0000
    46 H20         14.1277    54.3001    51.2261 H            1 SAH3501   0.0000
@<TRIPOS>BOND
     1    1    2       1
     2    2    3       1
     3    2    6       1
     4    3    4       1
     5    4    5       1
     6    5    9       1
     7    6    7      ar
     8    6    8      ar
     9    9   10       1
    10   10   11       1
    11   10   12       1
    12   11   16       1
    13   12   13       1
    14   12   14       1
    15   14   15       1
    16   14   16       1
    17   16   17       1
    18   17   18       1
    19   17   26       1
    20   18   19       2
    21   19   20       1
    22   20   21      ar
    23   20   26      ar
    24   21   22       1
    25   21   23      ar
    26   23   24      ar
    27   24   25      ar
    28   25   26      ar
    29    1   27       1
    30    1   28       1
    31    2   29       1
    32    3   30       1
    33    3   31       1
    34    4   32       1
    35    4   33       1
    36    1   46       1
    37    9   34       1
    38    9   35       1
    39   10   36       1
    40   12   37       1
    41   13   38       1
    42   14   39       1
    43   15   40       1
    44   16   41       1
    45   18   42       1
    46   22   43       1
    47   22   44       1
    48   24   45       1
@<TRIPOS>SUBSTRUCTURE
     1 SAH3501     1 GROUP             4 G     SAH     0 **** SAH G3501
