@<TRIPOS>MOLECULE
3ed1_GA3_6_ligand
   46    50     1     0     0
SMALL
NO_CHARGES


@<TRIPOS>ATOM
     1 O71         36.5740    41.2360    55.1940 O.co2        1 GA3401   0.0000
     2 C7          35.8310    41.6860    56.0870 C.2          1 GA3401   0.0000
     3 O72         35.1440    40.9160    56.7730 O.co2        1 GA3401  -1.0000
     4 C6          35.7770    43.1690    56.4030 C.3          1 GA3401   0.0000
     5 C5          37.1490    43.8610    56.3750 C.3          1 GA3401   0.0000
     6 C8          34.9060    44.0160    55.4590 C.3          1 GA3401   0.0000
     7 C15         34.8420    43.5050    54.0030 C.3          1 GA3401   0.0000
     8 C16         33.6760    44.3540    53.5270 C.2          1 GA3401   0.0000
     9 C17         33.4020    44.5460    52.2430 C.2          1 GA3401   0.0000
    10 C13         32.9170    44.9880    54.6720 C.3          1 GA3401   0.0000
    11 C14         33.4200    44.1280    55.8280 C.3          1 GA3401   0.0000
    12 O13         31.4990    44.8750    54.5290 O.3          1 GA3401   0.0000
    13 C12         33.2870    46.4770    54.8500 C.3          1 GA3401   0.0000
    14 C11         34.5820    46.5880    55.7160 C.3          1 GA3401   0.0000
    15 C9          35.5500    45.4260    55.4240 C.3          1 GA3401   0.0000
    16 C10         36.7520    45.3360    56.3470 C.3          1 GA3401   0.0000
    17 O92         36.3830    45.6430    57.7050 O.3          1 GA3401   0.0000
    18 C1          37.9760    46.1690    56.0030 C.2          1 GA3401   0.0000
    19 C2          39.1740    45.7950    56.5000 C.2          1 GA3401   0.0000
    20 C3          39.3350    44.5430    57.3610 C.3          1 GA3401   0.0000
    21 O31         40.1680    43.6560    56.6280 O.3          1 GA3401   0.0000
    22 C4          37.9880    43.8330    57.6440 C.3          1 GA3401   0.0000
    23 C18         38.1500    42.4390    58.2870 C.3          1 GA3401   0.0000
    24 C19         37.1900    44.7650    58.5210 C.2          1 GA3401   0.0000
    25 O91         37.2260    44.8260    59.7370 O.2          1 GA3401   0.0000
    26 H1          35.4069    43.2682    57.3267 H            1 GA3401   0.0000
    27 H2          37.6816    43.6021    55.5692 H            1 GA3401   0.0000
    28 H3          34.6419    42.5264    53.9542 H            1 GA3401   0.0000
    29 H4          35.6824    43.6990    53.4969 H            1 GA3401   0.0000
    30 H5          32.6228    45.1137    51.9775 H            1 GA3401   0.0000
    31 H6          33.9747    44.1230    51.5408 H            1 GA3401   0.0000
    32 H7          33.2908    44.5812    56.7100 H            1 GA3401   0.0000
    33 H8          32.9743    43.2330    55.8447 H            1 GA3401   0.0000
    34 H9          31.2804    44.0403    54.0235 H            1 GA3401   0.0000
    35 H10         32.5373    46.9550    55.3077 H            1 GA3401   0.0000
    36 H11         33.4481    46.8905    53.9538 H            1 GA3401   0.0000
    37 H12         34.3300    46.5671    56.6835 H            1 GA3401   0.0000
    38 H13         35.0393    47.4530    55.5093 H            1 GA3401   0.0000
    39 H14         35.9018    45.5640    54.4982 H            1 GA3401   0.0000
    40 H15         37.8954    46.9777    55.4203 H            1 GA3401   0.0000
    41 H16         39.9790    46.3532    56.2990 H            1 GA3401   0.0000
    42 H17         39.7771    44.7832    58.2252 H            1 GA3401   0.0000
    43 H18         40.3041    42.8160    57.1532 H            1 GA3401   0.0000
    44 H19         38.7124    42.5150    59.1104 H            1 GA3401   0.0000
    45 H20         37.2499    42.0775    58.5303 H            1 GA3401   0.0000
    46 H21         38.5927    41.8214    57.6369 H            1 GA3401   0.0000
@<TRIPOS>BOND
     1    1    2      ar
     2    2    3      ar
     3    2    4       1
     4    4    5       1
     5    4    6       1
     6    5   16       1
     7    5   22       1
     8    6    7       1
     9    6   11       1
    10    6   15       1
    11    7    8       1
    12    8    9       2
    13    8   10       1
    14   10   11       1
    15   10   12       1
    16   10   13       1
    17   13   14       1
    18   14   15       1
    19   15   16       1
    20   16   17       1
    21   16   18       1
    22   17   24       1
    23   18   19       2
    24   19   20       1
    25   20   21       1
    26   20   22       1
    27   22   23       1
    28   22   24       1
    29   24   25       2
    30   23   46       1
    31    4   26       1
    32    5   27       1
    33    7   28       1
    34    7   29       1
    35    9   30       1
    36    9   31       1
    37   11   32       1
    38   11   33       1
    39   12   34       1
    40   13   35       1
    41   13   36       1
    42   14   37       1
    43   14   38       1
    44   15   39       1
    45   18   40       1
    46   19   41       1
    47   20   42       1
    48   21   43       1
    49   23   44       1
    50   23   45       1
@<TRIPOS>SUBSTRUCTURE
     1 GA3401      1 GROUP             4 F     GA3     0 **** GA3 F 401
