@<TRIPOS>MOLECULE
./coach420/1llr/ligand.pdb
 89 91 0 0 0
SMALL
GASTEIGER

@<TRIPOS>ATOM
      1  C1       -10.9730   19.7570    2.0940 C.3   104  FNG104      0.3218
      2  O1       -12.3700   20.0080    2.0830 O.3   104  FNG104     -0.4504
      3  C2       -10.7930   18.5120    2.9040 C.3   104  FNG104      0.2542
      4  O2       -11.5510   17.3930    2.3360 O.3   104  FNG104     -0.2135
      5  C3       -11.1740   18.8100    4.4040 C.3   104  FNG104      0.2211
      6  O3       -10.7880   17.6330    5.1740 O.3   104  FNG104     -0.2173
      7  C4       -10.3790   19.9620    4.9600 C.3   104  FNG104      0.2145
      8  O4        -8.9640   19.6350    5.0290 O.3   104  FNG104     -0.2176
      9  C5       -10.6180   21.1230    4.0650 C.3   104  FNG104      0.1846
     10  O5       -10.2850   20.8280    2.6920 O.3   104  FNG104     -0.3157
     11  C6        -9.7380   22.3620    4.4160 C.3   104  FNG104      0.2142
     12  O6       -10.1570   23.4230    3.5580 O.3   104  FNG104     -0.2176
     13  C7       -12.7960   21.0700    1.2370 C.ar  104  FNG104      0.1432
     14  C12      -12.8690   22.3390    1.8010 C.ar  104  FNG104      0.0610
     15  C11      -13.3070   23.3310    0.9230 C.ar  104  FNG104      0.1460
     16  C10      -13.6460   23.0880   -0.4100 C.ar  104  FNG104      0.0288
     17  C9       -13.5380   21.7680   -0.8800 C.ar  104  FNG104      0.0597
     18  C8       -13.1250   20.7250   -0.0750 C.ar  104  FNG104      0.0417
     19  N16      -13.3180   24.7220    1.4410 N.pl3 104  FNG104      0.0578
     20  O17      -13.7890   25.5220    0.6790 O.2   104  FNG104     -0.1261
     21  O18      -13.1170   24.8490    2.6660 O.2   104  FNG104     -0.1261
     22  C13      -13.9370   21.4830   -2.3000 C.2   104  FNG104      0.2649
     23  N15      -14.5600   22.4080   -2.8670 N.am  104  FNG104     -0.2016
     24  O14      -13.6670   20.4030   -2.7760 O.2   104  FNG104     -0.2684
     25  C1       -15.4530   22.2300   -4.0070 C.3   105  LNQ105      0.1181
     26  C2       -16.6350   23.0590   -3.6540 C.3   105  LNQ105      0.0555
     27  C3       -17.5410   22.6260   -2.5040 C.3   105  LNQ105      0.1441
     28  O4       -17.1510   23.6010   -1.4760 O.3   105  LNQ105     -0.3510
     29  C5       -18.1980   24.4860   -1.0640 C.3   105  LNQ105      0.1741
     30  C6       -17.8330   25.8040   -1.7560 C.3   105  LNQ105      0.1742
     31  O7       -18.1140   26.9100   -0.9280 O.3   105  LNQ105     -0.3484
     32  C8       -19.2420   27.2590   -0.1450 C.3   105  LNQ105      0.1742
     33  C9       -19.2190   28.7680   -0.0780 C.3   105  LNQ105      0.1741
     34  O10      -18.8410   29.2500   -1.3830 O.3   105  LNQ105     -0.3510
     35  C11      -19.2290   30.6230   -1.5810 C.3   105  LNQ105      0.1441
     36  C12      -18.8600   30.9190   -3.0160 C.3   105  LNQ105      0.0554
     37  C13      -18.2200   32.3250   -3.3630 C.3   105  LNQ105      0.1150
     38  N14      -18.4890   32.9900   -4.7150 N.pl3 105  LNQ105     -0.2329
     39  C15      -18.6550   34.3170   -4.7210 C.2   105  LNQ105      0.1275
     40  C16      -19.9290   35.0440   -4.3500 C.2   105  LNQ105      0.2517
     41  C17      -19.2120   36.3040   -4.5770 C.2   105  LNQ105      0.2535
     42  C18      -18.0250   35.5390   -4.9230 C.2   105  LNQ105      0.1491
     43  O19      -20.9680   34.4800   -4.0230 O.2   105  LNQ105     -0.2817
     44  O20      -19.2670   37.5310   -4.5760 O.2   105  LNQ105     -0.2816
     45  N21      -16.8480   36.1340   -5.2950 N.pl3 105  LNQ105     -0.1231
     46  O1        15.2450   18.4540   15.4000 O.3   104  FNG104     -0.2865
     47  C2        17.0120   19.7850   16.3840 C.3   104  FNG104      0.2175
     48  O2        17.7080   18.4570   16.6960 O.3   104  FNG104     -0.2175
     49  C3        16.1450   20.0320   17.6350 C.3   104  FNG104      0.2175
     50  O3        16.9900   20.2650   18.7620 O.3   104  FNG104     -0.2175
     51  C4        15.2580   21.2420   17.4350 C.3   104  FNG104      0.2175
     52  O4        16.1690   22.3410   17.2950 O.3   104  FNG104     -0.2175
     53  C5        14.5470   20.9260   16.1480 C.3   104  FNG104      0.2175
     54  O5        15.4070   20.7250   15.0260 O.3   104  FNG104     -0.2175
     55  C6        13.7590   22.2250   15.7620 C.3   104  FNG104      0.2175
     56  O6        12.8520   21.8830   14.6740 O.3   104  FNG104     -0.2175
     57  C7        14.4270   18.1050   14.2730 C.ar  104  FNG104      0.1976
     58  C12       13.1370   18.6380   14.2400 C.ar  104  FNG104      0.0661
     59  C11       12.4340   18.2600   13.1100 C.ar  104  FNG104      0.1462
     60  C10       12.8740   17.3780   12.1190 C.ar  104  FNG104      0.0288
     61  C9        14.1930   16.8890   12.2390 C.ar  104  FNG104      0.0599
     62  C8        14.9500   17.2540   13.3460 C.ar  104  FNG104      0.0467
     63  N16       11.0900   18.8490   12.9920 N.pl3 104  FNG104      0.0578
     64  O17       10.4750   18.3780   12.0560 O.2   104  FNG104     -0.1261
     65  O18       10.6080   19.5190   13.9110 O.2   104  FNG104     -0.1261
     66  C13       14.7680   15.9700   11.2830 C.2   104  FNG104      0.2649
     67  N15       14.0570   15.4230   10.3750 N.am  104  FNG104     -0.2016
     68  O14       15.9930   15.6130   11.3220 O.2   104  FNG104     -0.2684
     69  C1        14.3470   13.9500   10.1190 C.3   105  LNQ105      0.1181
     70  C2        12.9510   13.4470    9.9540 C.3   105  LNQ105      0.0555
     71  C3        12.2160   13.3730   11.3230 C.3   105  LNQ105      0.1441
     72  O4        11.0750   14.1560   11.0040 O.3   105  LNQ105     -0.3510
     73  C5         9.9350   14.0800   11.8950 C.3   105  LNQ105      0.1741
     74  C6         8.7950   13.5500   11.0030 C.3   105  LNQ105      0.1742
     75  O7         7.5590   13.7690   11.7000 O.3   105  LNQ105     -0.3484
     76  C8         6.3080   13.1550   11.4050 C.3   105  LNQ105      0.1742
     77  C9         5.2950   14.3270   11.2860 C.3   105  LNQ105      0.1741
     78  O10        5.0470   14.4650    9.8690 O.3   105  LNQ105     -0.3510
     79  C11        3.8410   14.1830    9.2330 C.3   105  LNQ105      0.1441
     80  C12        4.0360   14.6740    7.8120 C.3   105  LNQ105      0.0554
     81  C13        3.2200   15.2040    6.7590 C.3   105  LNQ105      0.1150
     82  N14        3.2450   14.5820    5.3710 N.pl3 105  LNQ105     -0.2329
     83  C15        2.0540   14.6970    4.7930 C.2   105  LNQ105      0.1275
     84  C16        0.7230   14.0980    5.1060 C.2   105  LNQ105      0.2517
     85  C17        0.1560   14.9350    4.0040 C.2   105  LNQ105      0.2535
     86  C18        1.4620   15.4690    3.7800 C.2   105  LNQ105      0.1491
     87  O19        0.1790   13.3160    5.8400 O.2   105  LNQ105     -0.2817
     88  O20       -1.0160   15.0170    3.6010 O.2   105  LNQ105     -0.2816
     89  N21        1.8630   16.4130    2.8730 N.pl3 105  LNQ105     -0.1231
@<TRIPOS>BOND
     1     1     2    1
     2     1    10    1
     3     1     3    1
     4     2    13    1
     5     3     4    1
     6     3     5    1
     7     5     7    1
     8     5     6    1
     9     7     9    1
    10     7     8    1
    11     9    10    1
    12     9    11    1
    13    11    12    1
    14    13    18   ar
    15    13    14   ar
    16    14    15   ar
    17    15    16   ar
    18    15    19    1
    19    16    17   ar
    20    17    22    1
    21    17    18   ar
    22    19    20    2
    23    19    21    2
    24    22    23   am
    25    22    24    2
    26    23    25    1
    27    25    26    1
    28    26    27    1
    29    27    28    1
    30    28    29    1
    31    29    30    1
    32    30    31    1
    33    31    32    1
    34    32    33    1
    35    33    34    1
    36    34    35    1
    37    35    36    1
    38    36    37    1
    39    37    38    1
    40    38    39    1
    41    39    42    2
    42    39    40    1
    43    40    41    1
    44    40    43    2
    45    41    42    1
    46    41    44    2
    47    42    45    1
    48    46    57    1
    49    47    48    1
    50    47    49    1
    51    49    51    1
    52    49    50    1
    53    51    53    1
    54    51    52    1
    55    53    54    1
    56    53    55    1
    57    55    56    1
    58    57    62   ar
    59    57    58   ar
    60    58    59   ar
    61    59    60   ar
    62    59    63    1
    63    60    61   ar
    64    61    66    1
    65    61    62   ar
    66    63    64    2
    67    63    65    2
    68    66    67   am
    69    66    68    2
    70    67    69    1
    71    69    70    1
    72    70    71    1
    73    71    72    1
    74    72    73    1
    75    73    74    1
    76    74    75    1
    77    75    76    1
    78    76    77    1
    79    77    78    1
    80    78    79    1
    81    79    80    1
    82    80    81    1
    83    81    82    1
    84    82    83    1
    85    83    86    2
    86    83    84    1
    87    84    85    1
    88    84    87    2
    89    85    88    2
    90    85    86    1
    91    86    89    1
