@<TRIPOS>MOLECULE
4m83_ERY_2_ligand
  119   121     1     0     0
SMALL
NO_CHARGES


@<TRIPOS>ATOM
     1 C10        -49.8000   -11.2990   -11.8540 C.3          1 ERY501   0.0000
     2 C11        -48.3160   -11.5680   -12.0370 C.3          1 ERY501   0.0000
     3 C12        -47.6370   -12.1880   -10.8110 C.3          1 ERY501   0.0000
     4 C13        -46.3150   -12.7990   -11.2610 C.3          1 ERY501   0.0000
     5 O2         -46.5540   -14.0820   -11.8260 O.3          1 ERY501   0.0000
     6 C2         -46.7690   -15.5860   -13.8240 C.3          1 ERY501   0.0000
     7 C3         -47.6560   -15.4290   -15.0690 C.3          1 ERY501   0.0000
     8 C4         -49.0780   -15.2680   -14.6100 C.3          1 ERY501   0.0000
     9 C5         -49.9850   -14.6310   -15.6930 C.3          1 ERY501   0.0000
    10 C6         -50.2780   -13.1770   -15.3130 C.3          1 ERY501   0.0000
    11 C7         -51.2610   -13.1270   -14.1250 C.3          1 ERY501   0.0000
    12 C8         -51.6580   -11.6830   -13.7170 C.3          1 ERY501   0.0000
    13 C9         -50.4970   -10.8880   -13.1500 C.2          1 ERY501   0.0000
    14 O11        -50.1200    -9.8780   -13.7370 O.2          1 ERY501   0.0000
    15 C1         -46.4920   -14.1990   -13.2580 C.2          1 ERY501   0.0000
    16 O1         -45.8660   -13.3880   -13.9210 O.2          1 ERY501   0.0000
    17 O3         -47.6050   -16.5730   -15.9350 O.3          1 ERY501   0.0000
    18 O7         -51.2230   -15.3410   -15.8890 O.3          1 ERY501   0.0000
    19 C34        -50.0800   -10.1660   -10.8710 C.3          1 ERY501   0.0000
    20 C33        -52.7720   -11.7370   -12.6970 C.3          1 ERY501   0.0000
    21 C35        -48.4970   -13.2610   -10.1890 C.3          1 ERY501   0.0000
    22 O12        -47.5780   -10.3960   -12.4000 O.3          1 ERY501   0.0000
    23 O13        -47.3930   -11.1990    -9.8660 O.3          1 ERY501   0.0000
    24 C36        -45.3430   -12.9610   -10.1030 C.3          1 ERY501   0.0000
    25 C30        -45.4160   -16.2070   -13.9980 C.3          1 ERY501   0.0000
    26 C32        -50.8400   -12.4710   -16.5080 C.3          1 ERY501   0.0000
    27 O10        -49.0770   -12.5530   -14.9490 O.3          1 ERY501   0.0000
    28 C22        -51.2580   -16.1460   -17.0870 C.3          1 ERY501   0.0000
    29 C23        -52.4510   -17.1210   -17.0890 C.3          1 ERY501   0.0000
    30 C24        -52.3100   -18.0060   -18.3060 C.3          1 ERY501   0.0000
    31 C25        -52.2540   -17.1420   -19.5510 C.3          1 ERY501   0.0000
    32 C26        -51.1840   -16.0550   -19.4030 C.3          1 ERY501   0.0000
    33 O9         -51.3460   -15.3530   -18.2100 O.3          1 ERY501   0.0000
    34 N1         -53.4010   -18.9660   -18.3650 N.4          1 ERY501   1.0000
    35 C27        -51.2570   -15.0980   -20.5730 C.3          1 ERY501   0.0000
    36 O8         -52.4580   -17.9250   -15.9400 O.3          1 ERY501   0.0000
    37 C28        -54.6950   -18.2930   -18.1870 C.3          1 ERY501   0.0000
    38 C14        -46.6510   -16.5150   -17.0030 C.3          1 ERY501   0.0000
    39 C15        -46.5320   -17.9120   -17.6380 C.3          1 ERY501   0.0000
    40 C16        -47.4410   -18.1720   -18.8450 C.3          1 ERY501   0.0000
    41 C17        -47.4210   -17.0010   -19.7600 C.3          1 ERY501   0.0000
    42 C18        -47.8050   -15.7550   -19.0260 C.3          1 ERY501   0.0000
    43 O4         -46.9730   -15.4980   -17.8850 O.3          1 ERY501   0.0000
    44 O5         -48.8050   -18.4000   -18.4200 O.3          1 ERY501   0.0000
    45 O6         -48.3910   -17.2650   -20.7630 O.3          1 ERY501   0.0000
    46 C20        -48.9630   -19.2630   -17.2900 C.3          1 ERY501   0.0000
    47 C29        -53.4050   -19.6210   -19.6360 C.3          1 ERY501   0.0000
    48 C21        -47.6820   -14.5980   -19.9670 C.3          1 ERY501   0.0000
    49 C37        -44.2850   -14.0130   -10.5090 C.3          1 ERY501   0.0000
    50 C31        -49.6210   -16.6450   -14.1560 C.3          1 ERY501   0.0000
    51 C19        -46.9190   -19.3340   -19.6350 C.3          1 ERY501   0.0000
    52 H1         -50.2338   -12.1320   -11.5105 H            1 ERY501   0.0000
    53 H2         -48.2237   -12.2210   -12.7887 H            1 ERY501   0.0000
    54 H3         -45.9016   -12.2087   -11.9543 H            1 ERY501   0.0000
    55 H4         -47.2736   -16.1125   -13.1398 H            1 ERY501   0.0000
    56 H5         -47.3758   -14.6143   -15.5768 H            1 ERY501   0.0000
    57 H6         -49.0770   -14.6613   -13.8150 H            1 ERY501   0.0000
    58 H7         -49.4846   -14.6321   -16.5588 H            1 ERY501   0.0000
    59 H8         -50.8320   -13.5723   -13.3391 H            1 ERY501   0.0000
    60 H9         -52.0906   -13.6247   -14.3783 H            1 ERY501   0.0000
    61 H10        -51.9976   -11.2085   -14.5291 H            1 ERY501   0.0000
    62 H11        -51.0676   -10.0323   -10.7890 H            1 ERY501   0.0000
    63 H12        -49.6998   -10.3995    -9.9761 H            1 ERY501   0.0000
    64 H13        -49.6561    -9.3236   -11.2038 H            1 ERY501   0.0000
    65 H14        -53.0283   -10.8069   -12.4337 H            1 ERY501   0.0000
    66 H15        -53.5641   -12.2016   -13.0928 H            1 ERY501   0.0000
    67 H16        -52.4607   -12.2382   -11.8896 H            1 ERY501   0.0000
    68 H17        -48.0277   -13.6450    -9.3938 H            1 ERY501   0.0000
    69 H18        -49.3691   -12.8646    -9.9021 H            1 ERY501   0.0000
    70 H19        -48.6640   -13.9844   -10.8590 H            1 ERY501   0.0000
    71 H20        -48.2006    -9.6160   -12.4622 H            1 ERY501   0.0000
    72 H21        -46.9499   -11.6041    -9.0663 H            1 ERY501   0.0000
    73 H22        -45.8341   -13.2707    -9.2888 H            1 ERY501   0.0000
    74 H23        -44.8961   -12.0873    -9.9106 H            1 ERY501   0.0000
    75 H24        -44.9512   -16.2466   -13.1135 H            1 ERY501   0.0000
    76 H25        -45.5184   -17.1326   -14.3624 H            1 ERY501   0.0000
    77 H26        -44.8757   -15.6562   -14.6342 H            1 ERY501   0.0000
    78 H27        -51.0355   -11.5192   -16.2715 H            1 ERY501   0.0000
    79 H28        -50.1756   -12.4991   -17.2548 H            1 ERY501   0.0000
    80 H29        -51.6843   -12.9231   -16.7958 H            1 ERY501   0.0000
    81 H30        -49.2580   -11.6019   -14.6988 H            1 ERY501   0.0000
    82 H31        -50.4125   -16.6775   -17.1381 H            1 ERY501   0.0000
    83 H32        -53.3064   -16.6060   -17.1446 H            1 ERY501   0.0000
    84 H33        -51.4494   -18.5099   -18.2322 H            1 ERY501   0.0000
    85 H34        -53.1447   -16.7098   -19.6919 H            1 ERY501   0.0000
    86 H35        -52.0333   -17.7156   -20.3399 H            1 ERY501   0.0000
    87 H36        -50.2834   -16.4896   -19.3997 H            1 ERY501   0.0000
    88 H37        -50.5566   -14.3917   -20.4702 H            1 ERY501   0.0000
    89 H38        -51.1021   -15.5996   -21.4241 H            1 ERY501   0.0000
    90 H39        -52.1606   -14.6702   -20.5979 H            1 ERY501   0.0000
    91 H40        -53.3064   -17.7739   -15.4326 H            1 ERY501   0.0000
    92 H41        -55.4309   -18.9687   -18.2306 H            1 ERY501   0.0000
    93 H42        -54.7138   -17.8367   -17.2974 H            1 ERY501   0.0000
    94 H43        -54.8209   -17.6157   -18.9118 H            1 ERY501   0.0000
    95 H44        -45.7633   -16.2924   -16.6001 H            1 ERY501   0.0000
    96 H45        -46.7525   -18.5888   -16.9356 H            1 ERY501   0.0000
    97 H46        -45.5849   -18.0354   -17.9342 H            1 ERY501   0.0000
    98 H47        -46.5155   -16.8969   -20.1713 H            1 ERY501   0.0000
    99 H48        -48.7558   -15.8325   -18.7261 H            1 ERY501   0.0000
   100 H49        -49.1217   -17.8299   -20.3796 H            1 ERY501   0.0000
   101 H50        -49.9352   -19.3569   -17.0757 H            1 ERY501   0.0000
   102 H51        -48.5798   -20.1622   -17.5012 H            1 ERY501   0.0000
   103 H52        -48.4844   -18.8731   -16.5033 H            1 ERY501   0.0000
   104 H53        -54.1572   -20.2791   -19.6695 H            1 ERY501   0.0000
   105 H54        -53.5237   -18.9420   -20.3605 H            1 ERY501   0.0000
   106 H55        -52.5370   -20.0999   -19.7669 H            1 ERY501   0.0000
   107 H56        -47.9351   -13.7546   -19.4931 H            1 ERY501   0.0000
   108 H57        -46.7377   -14.5290   -20.2888 H            1 ERY501   0.0000
   109 H58        -48.2910   -14.7372   -20.7479 H            1 ERY501   0.0000
   110 H59        -43.6333   -14.1363    -9.7606 H            1 ERY501   0.0000
   111 H60        -44.7377   -14.8832   -10.7036 H            1 ERY501   0.0000
   112 H61        -43.7997   -13.6998   -11.3254 H            1 ERY501   0.0000
   113 H62        -50.5675   -16.5453   -13.8490 H            1 ERY501   0.0000
   114 H63        -49.5849   -17.2866   -14.9222 H            1 ERY501   0.0000
   115 H64        -49.0614   -16.9924   -13.4036 H            1 ERY501   0.0000
   116 H65        -47.5159   -19.4983   -20.4203 H            1 ERY501   0.0000
   117 H66        -45.9942   -19.1302   -19.9562 H            1 ERY501   0.0000
   118 H67        -46.8987   -20.1488   -19.0556 H            1 ERY501   0.0000
   119 H68        -53.2809   -19.6472   -17.6428 H            1 ERY501   0.0000
@<TRIPOS>BOND
     1    1    2       1
     2    1   13       1
     3    1   19       1
     4    2    3       1
     5    2   22       1
     6    3    4       1
     7    3   21       1
     8    3   23       1
     9    4    5       1
    10    4   24       1
    11    5   15       1
    12    6    7       1
    13    6   15       1
    14    6   25       1
    15    7    8       1
    16    7   17       1
    17    8    9       1
    18    8   50       1
    19    9   10       1
    20    9   18       1
    21   10   11       1
    22   10   26       1
    23   10   27       1
    24   11   12       1
    25   12   13       1
    26   12   20       1
    27   13   14       2
    28   15   16       2
    29   17   38       1
    30   18   28       1
    31   24   49       1
    32   28   29       1
    33   28   33       1
    34   29   30       1
    35   29   36       1
    36   30   31       1
    37   30   34       1
    38   31   32       1
    39   32   33       1
    40   32   35       1
    41   34   37       1
    42   34   47       1
    43   38   39       1
    44   38   43       1
    45   39   40       1
    46   40   41       1
    47   40   44       1
    48   40   51       1
    49   41   42       1
    50   41   45       1
    51   42   43       1
    52   42   48       1
    53   44   46       1
    54    1   52       1
    55    2   53       1
    56    4   54       1
    57    6   55       1
    58    7   56       1
    59    8   57       1
    60    9   58       1
    61   11   59       1
    62   11   60       1
    63   12   61       1
    64   19   62       1
    65   19   63       1
    66   19   64       1
    67   20   65       1
    68   20   66       1
    69   20   67       1
    70   21   68       1
    71   21   69       1
    72   21   70       1
    73   22   71       1
    74   23   72       1
    75   24   73       1
    76   24   74       1
    77   25   75       1
    78   25   76       1
    79   25   77       1
    80   26   78       1
    81   26   79       1
    82   26   80       1
    83   27   81       1
    84   28   82       1
    85   29   83       1
    86   30   84       1
    87   31   85       1
    88   31   86       1
    89   32   87       1
    90   35   88       1
    91   35   89       1
    92   35   90       1
    93   36   91       1
    94   37   92       1
    95   37   93       1
    96   37   94       1
    97   38   95       1
    98   39   96       1
    99   39   97       1
   100   41   98       1
   101   42   99       1
   102   45  100       1
   103   46  101       1
   104   46  102       1
   105   46  103       1
   106   47  104       1
   107   47  105       1
   108   47  106       1
   109   48  107       1
   110   48  108       1
   111   48  109       1
   112   49  110       1
   113   49  111       1
   114   49  112       1
   115   50  113       1
   116   50  114       1
   117   50  115       1
   118   51  116       1
   119   51  117       1
   120   51  118       1
   121   34  119       1
@<TRIPOS>SUBSTRUCTURE
     1 ERY501      1 GROUP             4 B     ERY     0 **** ERY B 501
