@<TRIPOS>MOLECULE
4ykf_FAD_1_ligand
   84    89     1     0     0
SMALL
NO_CHARGES


@<TRIPOS>ATOM
     1 PA         -24.4500    56.1990   161.9540 P.3          1 FAD601   0.0000
     2 O1A        -25.7330    55.4930   162.1520 O.co2        1 FAD601   0.0000
     3 O2A        -24.2470    57.3920   162.8060 O.co2        1 FAD601  -1.0000
     4 O5B        -24.1680    56.5360   160.4840 O.3          1 FAD601   0.0000
     5 C5B        -24.3160    55.5530   159.4760 C.3          1 FAD601   0.0000
     6 C4B        -24.6430    56.3050   158.2070 C.3          1 FAD601   0.0000
     7 O4B        -24.7240    55.4060   157.0730 O.3          1 FAD601   0.0000
     8 C3B        -25.9920    57.0290   158.2670 C.3          1 FAD601   0.0000
     9 O3B        -25.9150    58.2470   157.5440 O.3          1 FAD601   0.0000
    10 C2B        -26.8990    56.1080   157.4730 C.3          1 FAD601   0.0000
    11 O2B        -27.9310    56.7960   156.7900 O.3          1 FAD601   0.0000
    12 C1B        -25.9370    55.6650   156.3860 C.3          1 FAD601   0.0000
    13 N9A        -26.4060    54.4800   155.6670 N.pl3        1 FAD601   0.0000
    14 C8A        -27.2120    53.4840   156.1610 C.2          1 FAD601   0.0000
    15 N7A        -27.4810    52.5350   155.2960 N.2          1 FAD601   0.0000
    16 C5A        -26.8160    52.9400   154.1530 C.ar         1 FAD601   0.0000
    17 C6A        -26.6420    52.3270   152.9010 C.ar         1 FAD601   0.0000
    18 N6A        -27.2280    51.1720   152.5560 N.pl3        1 FAD601   0.0000
    19 N1A        -25.8340    52.9420   152.0090 N.ar         1 FAD601   0.0000
    20 C2A        -25.3080    54.1240   152.3420 C.ar         1 FAD601   0.0000
    21 N3A        -25.4270    54.8080   153.4940 N.ar         1 FAD601   0.0000
    22 C4A        -26.1640    54.1450   154.3640 C.ar         1 FAD601   0.0000
    23 N1         -23.6960    58.9300   170.8340 N.2          1 FAD601   0.0000
    24 C2         -22.8660    59.5360   171.7540 C.2          1 FAD601   0.0000
    25 O2         -21.7540    59.0920   171.9980 O.2          1 FAD601   0.0000
    26 N3         -23.2990    60.6200   172.4880 N.pl3        1 FAD601   0.0000
    27 C4         -24.5500    61.2040   172.4080 C.2          1 FAD601   0.0000
    28 O4         -24.7790    62.1950   173.0960 O.2          1 FAD601   0.0000
    29 C4X        -25.4540    60.5220   171.4260 C.2          1 FAD601   0.0000
    30 N5         -26.6700    60.9790   171.2760 N.2          1 FAD601   0.0000
    31 C5X        -27.4960    60.3400   170.3380 C.ar         1 FAD601   0.0000
    32 C6         -28.7570    60.8710   170.0810 C.ar         1 FAD601   0.0000
    33 C7         -29.5850    60.3270   169.1060 C.ar         1 FAD601   0.0000
    34 C7M        -30.9100    60.9790   168.8060 C.3          1 FAD601   0.0000
    35 C8         -29.1550    59.2030   168.3810 C.ar         1 FAD601   0.0000
    36 C8M        -30.0280    58.5800   167.3170 C.3          1 FAD601   0.0000
    37 C9         -27.8980    58.6710   168.6320 C.ar         1 FAD601   0.0000
    38 C9A        -27.0640    59.2310   169.5950 C.ar         1 FAD601   0.0000
    39 N10        -25.7640    58.7560   169.8140 N.pl3        1 FAD601   0.0000
    40 C10        -24.9330    59.3900   170.6980 C.2          1 FAD601   0.0000
    41 C1'        -25.3440    57.5470   169.0870 C.3          1 FAD601   0.0000
    42 C2'        -24.4480    57.8120   167.8900 C.3          1 FAD601   0.0000
    43 O2'        -25.0150    58.8310   167.0780 O.3          1 FAD601   0.0000
    44 C3'        -24.2430    56.5700   167.0250 C.3          1 FAD601   0.0000
    45 O3'        -23.7490    55.5110   167.8330 O.3          1 FAD601   0.0000
    46 C4'        -23.2340    56.8360   165.9130 C.3          1 FAD601   0.0000
    47 O4'        -23.6850    57.9740   165.1700 O.3          1 FAD601   0.0000
    48 C5'        -23.0050    55.6230   165.0350 C.3          1 FAD601   0.0000
    49 O5'        -21.9640    55.9590   164.1020 O.3          1 FAD601   0.0000
    50 P          -21.9440    55.2040   162.7850 P.3          1 FAD601   0.0000
    51 O1P        -21.1190    55.9560   161.7910 O.co2        1 FAD601   0.0000
    52 O2P        -21.5020    53.7870   162.9960 O.co2        1 FAD601  -1.0000
    53 O3P        -23.4280    55.0160   162.2790 O.3          1 FAD601   0.0000
    54 H5B1       -25.0586    54.9251   159.7091 H            1 FAD601   0.0000
    55 H5B2       -23.4661    55.0377   159.3655 H            1 FAD601   0.0000
    56 H4B        -23.9230    56.9774   158.0353 H            1 FAD601   0.0000
    57 H3B        -26.3114    57.1624   159.2052 H            1 FAD601   0.0000
    58 H5         -26.7973    58.7159   157.5859 H            1 FAD601   0.0000
    59 H2B        -27.2422    55.3429   158.0179 H            1 FAD601   0.0000
    60 H7         -28.1781    57.6191   157.3014 H            1 FAD601   0.0000
    61 H1B        -25.7990    56.4142   155.7382 H            1 FAD601   0.0000
    62 H8A        -27.5629    53.4822   157.0974 H            1 FAD601   0.0000
    63 H6A1       -27.0679    50.7813   151.6495 H            1 FAD601   0.0000
    64 H6A2       -27.8253    50.7010   153.2051 H            1 FAD601   0.0000
    65 H2A        -24.7485    54.5606   151.6375 H            1 FAD601   0.0000
    66 H13        -22.6505    61.0195   173.1360 H            1 FAD601   0.0000
    67 H14        -29.0734    61.6595   170.6084 H            1 FAD601   0.0000
    68 H7M1       -31.3779    60.4670   168.0857 H            1 FAD601   0.0000
    69 H7M2       -31.4739    60.9835   169.6319 H            1 FAD601   0.0000
    70 H7M3       -30.7575    61.9192   168.5014 H            1 FAD601   0.0000
    71 H8M1       -29.5550    57.7962   166.9146 H            1 FAD601   0.0000
    72 H8M2       -30.8878    58.2758   167.7272 H            1 FAD601   0.0000
    73 H8M3       -30.2191    59.2556   166.6049 H            1 FAD601   0.0000
    74 H21        -27.5873    57.8742   168.1137 H            1 FAD601   0.0000
    75 H1'1       -26.1647    57.0754   168.7646 H            1 FAD601   0.0000
    76 H1'2       -24.8484    56.9561   169.7235 H            1 FAD601   0.0000
    77 H2'        -23.5568    58.1236   168.2196 H            1 FAD601   0.0000
    78 H25        -24.7512    58.6831   166.1248 H            1 FAD601   0.0000
    79 H3'        -25.1170    56.2991   166.6216 H            1 FAD601   0.0000
    80 H27        -24.0583    54.6358   167.4611 H            1 FAD601   0.0000
    81 H4'        -22.3620    57.0745   166.3404 H            1 FAD601   0.0000
    82 H29        -23.8337    57.7120   164.2165 H            1 FAD601   0.0000
    83 H5'1       -23.8447    55.3939   164.5426 H            1 FAD601   0.0000
    84 H5'2       -22.7238    54.8437   165.5950 H            1 FAD601   0.0000
@<TRIPOS>BOND
     1    1    2      ar
     2    1    3      ar
     3    1    4       1
     4    1   53       1
     5    4    5       1
     6    5    6       1
     7    6    7       1
     8    6    8       1
     9    7   12       1
    10    8    9       1
    11    8   10       1
    12   10   11       1
    13   10   12       1
    14   12   13       1
    15   13   14       1
    16   13   22       1
    17   14   15       2
    18   15   16       1
    19   16   17      ar
    20   16   22      ar
    21   17   18       1
    22   17   19      ar
    23   19   20      ar
    24   20   21      ar
    25   21   22      ar
    26   23   24       1
    27   23   40       2
    28   24   25       2
    29   24   26       1
    30   26   27       1
    31   27   28       2
    32   27   29       1
    33   29   30       2
    34   29   40       1
    35   30   31       1
    36   31   32      ar
    37   31   38      ar
    38   32   33      ar
    39   33   34       1
    40   33   35      ar
    41   35   36       1
    42   35   37      ar
    43   37   38      ar
    44   38   39       1
    45   39   40       1
    46   39   41       1
    47   41   42       1
    48   42   43       1
    49   42   44       1
    50   44   45       1
    51   44   46       1
    52   46   47       1
    53   46   48       1
    54   48   49       1
    55   49   50       1
    56   50   51      ar
    57   50   52      ar
    58   50   53       1
    59   48   84       1
    60    5   54       1
    61    5   55       1
    62    6   56       1
    63    8   57       1
    64    9   58       1
    65   10   59       1
    66   11   60       1
    67   12   61       1
    68   14   62       1
    69   18   63       1
    70   18   64       1
    71   20   65       1
    72   26   66       1
    73   32   67       1
    74   34   68       1
    75   34   69       1
    76   34   70       1
    77   36   71       1
    78   36   72       1
    79   36   73       1
    80   37   74       1
    81   41   75       1
    82   41   76       1
    83   42   77       1
    84   43   78       1
    85   44   79       1
    86   45   80       1
    87   46   81       1
    88   47   82       1
    89   48   83       1
@<TRIPOS>SUBSTRUCTURE
     1 FAD601      1 GROUP             4 A     FAD     0 **** FAD A 601
