@<TRIPOS>MOLECULE
3fhx_PLP_3_ligand
   24    24     1     0     0
SMALL
NO_CHARGES


@<TRIPOS>ATOM
     1 N1          12.5430    31.7050    27.9150 N.ar         1 PLP314   0.0000
     2 C2          12.0370    32.5970    28.8140 C.ar         1 PLP314   0.0000
     3 C2A         12.7700    33.9410    28.9860 C.3          1 PLP314   0.0000
     4 C3          10.8890    32.2660    29.5380 C.ar         1 PLP314   0.0000
     5 O3          10.3650    33.1530    30.4500 O.3          1 PLP314   0.0000
     6 C4          10.2680    31.0050    29.3170 C.ar         1 PLP314   0.0000
     7 C4A          8.9870    30.6630    30.1370 C.2          1 PLP314   0.0000
     8 O4A          8.3980    31.4620    30.9530 O.2          1 PLP314   0.0000
     9 C5          10.8500    30.1050    28.3560 C.ar         1 PLP314   0.0000
    10 C6          11.9760    30.4880    27.6850 C.ar         1 PLP314   0.0000
    11 C5A         10.3530    28.7170    27.9840 C.3          1 PLP314   0.0000
    12 O4P          9.1190    28.5420    27.3530 O.3          1 PLP314   0.0000
    13 P            8.7730    27.2490    26.5260 P.3          1 PLP314   0.0000
    14 O1P          9.7130    27.2060    25.3850 O.co2        1 PLP314   0.0000
    15 O2P          7.2750    27.5620    26.1550 O.co2        1 PLP314  -1.0000
    16 O3P          8.7760    26.0870    27.4430 O.co2        1 PLP314  -1.0000
    17 H2A1        12.2955    34.4942    29.6707 H            1 PLP314   0.0000
    18 H2A2        13.7090    33.7726    29.2860 H            1 PLP314   0.0000
    19 H2A3        12.7814    34.4286    28.1130 H            1 PLP314   0.0000
    20 H4           9.5431    32.9123    30.9662 H            1 PLP314   0.0000
    21 H4A          8.5933    29.7514    30.0188 H            1 PLP314   0.0000
    22 H6          12.3888    29.8683    27.0175 H            1 PLP314   0.0000
    23 H5A1        10.3155    28.1908    28.8335 H            1 PLP314   0.0000
    24 H5A2        11.0419    28.3211    27.3768 H            1 PLP314   0.0000
@<TRIPOS>BOND
     1    1    2      ar
     2    1   10      ar
     3    2    3       1
     4    2    4      ar
     5    4    5       1
     6    4    6      ar
     7    6    7       1
     8    6    9      ar
     9    7    8       2
    10    9   10      ar
    11    9   11       1
    12   11   12       1
    13   12   13       1
    14   13   14      ar
    15   13   15      ar
    16   13   16      ar
    17    3   17       1
    18    3   18       1
    19    3   19       1
    20    5   20       1
    21    7   21       1
    22   10   22       1
    23   11   23       1
    24   11   24       1
@<TRIPOS>SUBSTRUCTURE
     1 PLP314      1 GROUP             4 B     PLP     0 **** PLP B 314
