@<TRIPOS>MOLECULE
./coach420/3i6c/ligand.pdb
 32 34 0 0 0
SMALL
GASTEIGER

@<TRIPOS>ATOM
      1  F1        10.1940   -1.7460   29.6490 F     301  GIA301     -0.2042
      2  C1        10.1390   -2.5440   28.5600 C.ar  301  GIA301      0.1398
      3  C2         9.2060   -2.1230   27.6370 C.ar  301  GIA301      0.0296
      4  C3         8.9480   -2.9500   26.5770 C.ar  301  GIA301      0.0020
      5  C4         9.7130   -4.0660   26.3630 C.ar  301  GIA301     -0.0041
      6  C5        10.7130   -4.4790   27.2190 C.ar  301  GIA301     -0.0196
      7  C6        10.9250   -3.6720   28.3420 C.ar  301  GIA301      0.0254
      8  C7        11.4330   -5.7470   26.8750 C.3   301  GIA301      0.0311
      9  C1        19.1940  -11.9510   12.0720 C.ar  303  GIA303     -0.0003
     10  C2        18.5530  -12.0360   13.2970 C.ar  303  GIA303     -0.0000
     11  C3        19.2250  -11.5890   14.4330 C.ar  303  GIA303     -0.0003
     12  C4        20.4280  -10.9350   14.2960 C.ar  303  GIA303     -0.0042
     13  C5        21.0130  -10.7390   13.0400 C.ar  303  GIA303     -0.0199
     14  C6        20.3400  -11.1990   11.9060 C.ar  303  GIA303     -0.0042
     15  C7        22.2990   -9.9390   12.8250 C.3   303  GIA303      0.0596
     16  C8        22.0010   -8.5030   12.4350 C.3   303  GIA303      0.2024
     17  C9        21.0200   -7.8400   13.3790 C.2   303  GIA303      0.3846
     18  O10       21.3380   -7.5600   14.4910 O.co2 303  GIA303     -0.2437
     19  O11       19.7940   -7.6230   12.9050 O.co2 303  GIA303     -0.2437
     20  N12       21.4250   -8.3450   11.0860 N.am  303  GIA303     -0.1915
     21  C13       22.2310   -8.5070   10.0070 C.2   303  GIA303      0.2652
     22  O14       23.3920   -8.8720   10.1930 O.2   303  GIA303     -0.2684
     23  C15       21.7050   -8.2470    8.6530 C.ar  303  GIA303      0.0551
     24  C16       20.6820   -7.3430    8.4730 C.ar  303  GIA303      0.0046
     25  C17       20.2540   -7.0600    7.1650 C.ar  303  GIA303      0.0001
     26  C18       20.8480   -7.6680    6.0330 C.ar  303  GIA303      0.0000
     27  C19       21.9480   -8.5240    6.2350 C.ar  303  GIA303      0.0001
     28  C20       22.3150   -8.8300    7.5180 C.ar  303  GIA303      0.0046
     29  C21       19.2170   -6.1180    6.9660 C.ar  303  GIA303      0.0000
     30  C22       18.8470   -5.7740    5.6860 C.ar  303  GIA303      0.0000
     31  C23       19.4100   -6.4230    4.5840 C.ar  303  GIA303      0.0000
     32  C24       20.4060   -7.3400    4.7510 C.ar  303  GIA303      0.0000
@<TRIPOS>BOND
     1     1     2    1
     2     2     3   ar
     3     2     7   ar
     4     3     4   ar
     5     4     5   ar
     6     5     6   ar
     7     6     8    1
     8     6     7   ar
     9     9    14   ar
    10     9    10   ar
    11    10    11   ar
    12    11    12   ar
    13    12    13   ar
    14    13    14   ar
    15    13    15    1
    16    15    16    1
    17    16    20    1
    18    16    17    1
    19    17    19   ar
    20    17    18   ar
    21    20    21   am
    22    21    23    1
    23    21    22    2
    24    23    28   ar
    25    23    24   ar
    26    24    25   ar
    27    25    26   ar
    28    25    29   ar
    29    26    32   ar
    30    26    27   ar
    31    27    28   ar
    32    29    30   ar
    33    30    31   ar
    34    31    32   ar
