@<TRIPOS>MOLECULE
3r35_4CO_1_ligand
   96    99     1     0     0
SMALL
NO_CHARGES


@<TRIPOS>ATOM
     1 N1A         87.8390    20.8640    20.5370 N.ar         1 4CO170   0.0000
     2 C2A         86.6370    21.0310    21.1130 C.ar         1 4CO170   0.0000
     3 N3A         86.4710    21.9100    22.1130 N.ar         1 4CO170   0.0000
     4 C4A         87.5240    22.6530    22.5410 C.ar         1 4CO170   0.0000
     5 C5A         88.7780    22.5000    21.9660 C.ar         1 4CO170   0.0000
     6 C6A         88.9210    21.5760    20.9360 C.ar         1 4CO170   0.0000
     7 N6A         90.1260    21.3990    20.3420 N.pl3        1 4CO170   0.0000
     8 N7A         89.6160    23.3670    22.5820 N.2          1 4CO170   0.0000
     9 C8A         88.9000    24.0420    23.5200 C.2          1 4CO170   0.0000
    10 N9A         87.6300    23.6120    23.4660 N.pl3        1 4CO170   0.0000
    11 C1D         86.4840    24.0400    24.3070 C.3          1 4CO170   0.0000
    12 C2D         86.3370    22.9680    25.3640 C.3          1 4CO170   0.0000
    13 O2D         84.9680    23.0740    25.7290 O.3          1 4CO170   0.0000
    14 C3D         87.1610    23.5470    26.4980 C.3          1 4CO170   0.0000
    15 O3D         86.7200    23.0560    27.7450 O.3          1 4CO170   0.0000
    16 P3D         87.3620    21.6870    28.3020 P.3          1 4CO170   0.0000
    17 O7A         86.4910    20.5910    27.7380 O.co2        1 4CO170   0.0000
    18 O8A         88.7620    21.6710    27.7390 O.co2        1 4CO170  -1.0000
    19 O9A         87.2810    21.9080    29.8030 O.co2        1 4CO170  -1.0000
    20 C4D         86.8860    25.0370    26.4220 C.3          1 4CO170   0.0000
    21 O4D         86.7560    25.2510    25.0180 O.3          1 4CO170   0.0000
    22 C5D         88.0460    25.8520    26.9790 C.3          1 4CO170   0.0000
    23 O5D         89.2560    25.1880    26.6210 O.3          1 4CO170   0.0000
    24 P1A         90.6240    26.0360    26.4930 P.3          1 4CO170   0.0000
    25 O1A         91.3370    25.7900    25.1450 O.co2        1 4CO170   0.0000
    26 O2A         91.2700    26.0350    27.8230 O.co2        1 4CO170  -1.0000
    27 O3A         90.1760    27.5910    26.4680 O.3          1 4CO170   0.0000
    28 P2A         90.9080    28.5460    25.3570 P.3          1 4CO170   0.0000
    29 O4A         90.4310    29.9730    25.5390 O.co2        1 4CO170   0.0000
    30 O5A         92.4250    28.3980    25.3280 O.co2        1 4CO170  -1.0000
    31 O6A         90.3270    27.8330    24.0180 O.3          1 4CO170   0.0000
    32 CBP         88.5520    28.3000    22.4070 C.3          1 4CO170   0.0000
    33 CCP         89.9790    28.6160    22.8760 C.3          1 4CO170   0.0000
    34 CDP         88.5490    26.9760    21.6710 C.3          1 4CO170   0.0000
    35 CEP         88.0910    29.4320    21.4950 C.3          1 4CO170   0.0000
    36 CAP         87.5510    28.2070    23.5650 C.3          1 4CO170   0.0000
    37 OAP         87.7110    29.4300    24.2780 O.3          1 4CO170   0.0000
    38 C9P         86.1200    28.0710    23.0510 C.2          1 4CO170   0.0000
    39 O9P         85.7420    26.9880    22.6540 O.2          1 4CO170   0.0000
    40 N8P         85.2790    29.1190    23.0300 N.am         1 4CO170   0.0000
    41 C7P         83.8840    29.0120    22.6050 C.3          1 4CO170   0.0000
    42 C6P         83.7930    29.1290    21.0650 C.3          1 4CO170   0.0000
    43 C5P         82.3070    29.2700    20.7750 C.2          1 4CO170   0.0000
    44 O5P         81.5130    28.5450    21.3490 O.2          1 4CO170   0.0000
    45 N4P         81.8880    30.1940    19.9090 N.am         1 4CO170   0.0000
    46 C3P         80.5130    30.1340    19.4220 C.3          1 4CO170   0.0000
    47 C2P         80.2040    28.9210    18.5040 C.3          1 4CO170   0.0000
    48 S1P         81.1300    28.7300    16.9850 S.3          1 4CO170   0.0000
    49 O1B         78.7290    31.0610    16.0440 O.2          1 4CO170   0.0000
    50 C1B         79.4950    30.2920    15.4780 C.2          1 4CO170   0.0000
    51 C2B         78.9920    29.5140    14.2850 C.ar         1 4CO170   0.0000
    52 C3B         77.6720    29.7310    13.8630 C.ar         1 4CO170   0.0000
    53 C4B         77.1660    29.0580    12.7490 C.ar         1 4CO170   0.0000
    54 C5B         77.9640    28.1120    12.1110 C.ar         1 4CO170   0.0000
    55 O2B         77.4610    27.4500    11.0340 O.3          1 4CO170   0.0000
    56 C6B         79.2780    27.9060    12.5310 C.ar         1 4CO170   0.0000
    57 C7B         79.7980    28.5940    13.6210 C.ar         1 4CO170   0.0000
    58 CB          80.9170    30.1450    15.9660 C.3          1 4CO170   0.0000
    59 H2A         85.8567    20.4938    20.7927 H            1 4CO170   0.0000
    60 H6A1        90.9163    21.9309    20.6461 H            1 4CO170   0.0000
    61 H6A2        90.2249    20.7365    19.5995 H            1 4CO170   0.0000
    62 H8A         89.2577    24.7382    24.1423 H            1 4CO170   0.0000
    63 H1D         85.6499    24.1234    23.7617 H            1 4CO170   0.0000
    64 H2D         86.6188    22.0545    25.0706 H            1 4CO170   0.0000
    65 H7          84.8732    23.7255    26.4817 H            1 4CO170   0.0000
    66 H3D         88.1337    23.3572    26.3644 H            1 4CO170   0.0000
    67 H4D         86.0347    25.2642    26.8949 H            1 4CO170   0.0000
    68 H5D1        87.9725    25.9121    27.9745 H            1 4CO170   0.0000
    69 H5D2        88.0342    26.7722    26.5877 H            1 4CO170   0.0000
    70 HCP1        90.6190    28.4152    22.1344 H            1 4CO170   0.0000
    71 HCP2        90.0380    29.5855    23.1138 H            1 4CO170   0.0000
    72 HDP1        87.6204    26.7673    21.3641 H            1 4CO170   0.0000
    73 HDP2        89.1568    27.0335    20.8790 H            1 4CO170   0.0000
    74 HDP3        88.8678    26.2531    22.2840 H            1 4CO170   0.0000
    75 HEP1        87.1613    29.2463    21.1770 H            1 4CO170   0.0000
    76 HEP2        88.1041    30.2943    22.0013 H            1 4CO170   0.0000
    77 HEP3        88.7053    29.4977    20.7087 H            1 4CO170   0.0000
    78 HAP         87.7792    27.4327    24.1552 H            1 4CO170   0.0000
    79 H21         88.6529    29.5041    24.6056 H            1 4CO170   0.0000
    80 H8P         85.6229    30.0127    23.3181 H            1 4CO170   0.0000
    81 H7P1        83.3519    29.7469    23.0255 H            1 4CO170   0.0000
    82 H7P2        83.5165    28.1276    22.8927 H            1 4CO170   0.0000
    83 H6P1        84.1615    28.3091    20.6268 H            1 4CO170   0.0000
    84 H6P2        84.2930    29.9327    20.7424 H            1 4CO170   0.0000
    85 H4P         82.5059    30.9163    19.5983 H            1 4CO170   0.0000
    86 H3P1        80.3282    30.9705    18.9061 H            1 4CO170   0.0000
    87 H3P2        79.9036    30.0891    20.2136 H            1 4CO170   0.0000
    88 H2P1        79.2378    28.9810    18.2534 H            1 4CO170   0.0000
    89 H2P2        80.3569    28.0953    19.0470 H            1 4CO170   0.0000
    90 H3B         77.0896    30.3718    14.3631 H            1 4CO170   0.0000
    91 H4B         76.2440    29.2526    12.4143 H            1 4CO170   0.0000
    92 H2B         78.0183    26.7669    10.5620 H            1 4CO170   0.0000
    93 H6B         79.8550    27.2531    12.0402 H            1 4CO170   0.0000
    94 H7B         80.7370    28.4304    13.9235 H            1 4CO170   0.0000
    95 HB1         81.5220    30.0647    15.1739 H            1 4CO170   0.0000
    96 HB2         81.1623    30.9596    16.4916 H            1 4CO170   0.0000
@<TRIPOS>BOND
     1    1    2      ar
     2    1    6      ar
     3    2    3      ar
     4    3    4      ar
     5    4    5      ar
     6    4   10       1
     7    5    6      ar
     8    5    8       1
     9    6    7       1
    10    8    9       2
    11    9   10       1
    12   10   11       1
    13   11   12       1
    14   11   21       1
    15   12   13       1
    16   12   14       1
    17   14   15       1
    18   14   20       1
    19   15   16       1
    20   16   17      ar
    21   16   18      ar
    22   16   19      ar
    23   20   21       1
    24   20   22       1
    25   22   23       1
    26   23   24       1
    27   24   25      ar
    28   24   26      ar
    29   24   27       1
    30   27   28       1
    31   28   29      ar
    32   28   30      ar
    33   28   31       1
    34   31   33       1
    35   32   33       1
    36   32   34       1
    37   32   35       1
    38   32   36       1
    39   36   37       1
    40   36   38       1
    41   38   39       2
    42   38   40      am
    43   40   41       1
    44   41   42       1
    45   42   43       1
    46   43   44       2
    47   43   45      am
    48   45   46       1
    49   46   47       1
    50   47   48       1
    51   48   58       1
    52   49   50       2
    53   50   51       1
    54   50   58       1
    55   51   52      ar
    56   51   57      ar
    57   52   53      ar
    58   53   54      ar
    59   54   55       1
    60   54   56      ar
    61   56   57      ar
    62    2   59       1
    63    7   60       1
    64    7   61       1
    65    9   62       1
    66   11   63       1
    67   12   64       1
    68   13   65       1
    69   14   66       1
    70   58   96       1
    71   58   95       1
    72   20   67       1
    73   22   68       1
    74   22   69       1
    75   57   94       1
    76   56   93       1
    77   33   70       1
    78   33   71       1
    79   34   72       1
    80   34   73       1
    81   34   74       1
    82   35   75       1
    83   35   76       1
    84   35   77       1
    85   36   78       1
    86   37   79       1
    87   40   80       1
    88   41   81       1
    89   41   82       1
    90   42   83       1
    91   42   84       1
    92   45   85       1
    93   46   86       1
    94   46   87       1
    95   47   88       1
    96   47   89       1
    97   52   90       1
    98   53   91       1
    99   55   92       1
@<TRIPOS>SUBSTRUCTURE
     1 4CO170      1 GROUP             4 A     4CO     0 **** 4CO A 170
