@<TRIPOS>MOLECULE
3tu5_ATP_1_ligand
   43    45     1     0     0
SMALL
NO_CHARGES


@<TRIPOS>ATOM
     1 PG          16.7830    -6.2220    23.6270 P.3          1 ATP377   0.0000
     2 O1G         17.9220    -5.7600    24.4940 O.co2        1 ATP377   0.0000
     3 O2G         15.7860    -5.1070    23.3960 O.co2        1 ATP377  -1.0000
     4 O3G         17.4710    -6.9520    22.3710 O.co2        1 ATP377  -1.0000
     5 PB          15.8700    -8.8870    24.1350 P.3          1 ATP377   0.0000
     6 O1B         15.4730    -9.4070    25.4130 O.co2        1 ATP377   0.0000
     7 O2B         17.1550    -9.5340    23.8370 O.co2        1 ATP377  -1.0000
     8 O3B         15.8880    -7.3380    24.3370 O.3          1 ATP377   0.0000
     9 PA          14.1460   -10.3500    22.3670 P.3          1 ATP377   0.0000
    10 O1A         14.6550   -11.6810    22.9250 O.co2        1 ATP377   0.0000
    11 O2A         14.4930   -10.2230    20.8150 O.co2        1 ATP377  -1.0000
    12 O3A         14.8050    -9.1380    23.0640 O.3          1 ATP377   0.0000
    13 O5'         12.5630   -10.3820    22.5520 O.3          1 ATP377   0.0000
    14 C5'         11.9120   -10.7550    23.7530 C.3          1 ATP377   0.0000
    15 C4'         10.7480    -9.7530    23.7380 C.3          1 ATP377   0.0000
    16 O4'          9.9030    -9.7540    22.5720 O.3          1 ATP377   0.0000
    17 C3'          9.7660    -9.6470    24.8550 C.3          1 ATP377   0.0000
    18 O3'          9.3220    -8.2680    25.0080 O.3          1 ATP377   0.0000
    19 C2'          8.6840   -10.5250    24.2820 C.3          1 ATP377   0.0000
    20 O2'          7.4830   -10.2360    25.0120 O.3          1 ATP377   0.0000
    21 C1'          8.5460   -10.0280    22.8930 C.3          1 ATP377   0.0000
    22 N9           8.0430   -11.1180    22.1500 N.pl3        1 ATP377   0.0000
    23 C8           8.5320   -12.4340    22.1000 C.2          1 ATP377   0.0000
    24 N7           7.8290   -13.2950    21.3680 N.2          1 ATP377   0.0000
    25 C5           6.8240   -12.4450    20.8890 C.ar         1 ATP377   0.0000
    26 C6           5.7310   -12.7180    20.0250 C.ar         1 ATP377   0.0000
    27 N6           5.6000   -14.0280    19.5730 N.pl3        1 ATP377   0.0000
    28 N1           4.8330   -11.6810    19.6880 N.ar         1 ATP377   0.0000
    29 C2           5.0520   -10.3970    20.1730 C.ar         1 ATP377   0.0000
    30 N3           6.0810   -10.0170    21.0000 N.ar         1 ATP377   0.0000
    31 C4           6.9300   -11.0830    21.3380 C.ar         1 ATP377   0.0000
    32 H5'1        12.5016   -10.6288    24.5508 H            1 ATP377   0.0000
    33 H5'2        11.5893   -11.7010    23.7233 H            1 ATP377   0.0000
    34 H4'         11.1942    -8.8583    23.7173 H            1 ATP377   0.0000
    35 H3'         10.1322   -10.0169    25.7088 H            1 ATP377   0.0000
    36 H5           9.5533    -7.9431    25.9250 H            1 ATP377   0.0000
    37 H2'          8.9247   -11.4950    24.3159 H            1 ATP377   0.0000
    38 H7           6.9068   -11.0528    25.0426 H            1 ATP377   0.0000
    39 H1'          7.9639    -9.2173    22.8299 H            1 ATP377   0.0000
    40 H9           9.3613   -12.7083    22.5868 H            1 ATP377   0.0000
    41 H10          4.8471   -14.2733    18.9623 H            1 ATP377   0.0000
    42 H11          6.2588   -14.7239    19.8590 H            1 ATP377   0.0000
    43 H12          4.4038    -9.6878    19.8957 H            1 ATP377   0.0000
@<TRIPOS>BOND
     1    1    2      ar
     2    1    3      ar
     3    1    4      ar
     4    1    8       1
     5    5    6      ar
     6    5    7      ar
     7    5    8       1
     8    5   12       1
     9    9   10      ar
    10    9   11      ar
    11    9   12       1
    12    9   13       1
    13   13   14       1
    14   14   15       1
    15   15   16       1
    16   15   17       1
    17   16   21       1
    18   17   18       1
    19   17   19       1
    20   19   20       1
    21   19   21       1
    22   21   22       1
    23   22   23       1
    24   22   31       1
    25   23   24       2
    26   24   25       1
    27   25   26      ar
    28   25   31      ar
    29   26   27       1
    30   26   28      ar
    31   28   29      ar
    32   29   30      ar
    33   30   31      ar
    34   29   43       1
    35   27   42       1
    36   27   41       1
    37   23   40       1
    38   14   32       1
    39   14   33       1
    40   15   34       1
    41   17   35       1
    42   18   36       1
    43   19   37       1
    44   20   38       1
    45   21   39       1
@<TRIPOS>SUBSTRUCTURE
     1 ATP377      1 GROUP             4 A     ATP     0 **** ATP A 377
