@<TRIPOS>MOLECULE
4ge1_TSS_4_ligand
   25    26     1     0     0
SMALL
NO_CHARGES


@<TRIPOS>ATOM
     1 N1          41.1220    -0.1870    26.2680 N.4          1 TSS201   1.0000
     2 CA          41.7780     1.0910    26.4140 C.3          1 TSS201   0.0000
     3 CB          40.9290     2.3120    26.2560 C.3          1 TSS201   0.0000
     4 CG          39.7070     2.3980    27.1060 C.2          1 TSS201   0.0000
     5 CD1         38.3970     2.4880    26.6460 C.2          1 TSS201   0.0000
     6 NE1         37.5770     2.5400    27.7160 N.pl3        1 TSS201   0.0000
     7 CE2         38.3150     2.4790    28.8820 C.ar         1 TSS201   0.0000
     8 CD2         39.6400     2.3870    28.5320 C.ar         1 TSS201   0.0000
     9 CZ2         37.9260     2.4930    30.2470 C.ar         1 TSS201   0.0000
    10 CH2         38.8930     2.4150    31.2420 C.ar         1 TSS201   0.0000
    11 CZ3         40.2460     2.3230    30.8900 C.ar         1 TSS201   0.0000
    12 CE3         40.6270     2.3100    29.5460 C.ar         1 TSS201   0.0000
    13 H1          41.7895    -0.9207    26.3947 H            1 TSS201   0.0000
    14 H2          40.3997    -0.2713    26.9545 H            1 TSS201   0.0000
    15 HA1         42.5040     1.1375    25.7279 H            1 TSS201   0.0000
    16 HA2         42.1813     1.1203    27.3286 H            1 TSS201   0.0000
    17 HB1         40.6363     2.3550    25.3008 H            1 TSS201   0.0000
    18 HB2         41.4996     3.1060    26.4658 H            1 TSS201   0.0000
    19 HD1         38.1124     2.5103    25.6876 H            1 TSS201   0.0000
    20 HE1         36.5806     2.6122    27.6715 H            1 TSS201   0.0000
    21 HZ2         36.9587     2.5588    30.4920 H            1 TSS201   0.0000
    22 HH2         38.6243     2.4245    32.2052 H            1 TSS201   0.0000
    23 HZ3         40.9429     2.2663    31.6049 H            1 TSS201   0.0000
    24 HE3         41.5942     2.2465    29.3000 H            1 TSS201   0.0000
    25 H13         40.7224    -0.2541    25.3538 H            1 TSS201   0.0000
@<TRIPOS>BOND
     1    1    2       1
     2    2    3       1
     3    3    4       1
     4    4    5       2
     5    4    8       1
     6    5    6       1
     7    6    7       1
     8    7    8      ar
     9    7    9      ar
    10    8   12      ar
    11    9   10      ar
    12   10   11      ar
    13   11   12      ar
    14    1   13       1
    15    1   14       1
    16    2   15       1
    17    2   16       1
    18    3   17       1
    19    3   18       1
    20    5   19       1
    21    6   20       1
    22    9   21       1
    23   10   22       1
    24   11   23       1
    25   12   24       1
    26    1   25       1
@<TRIPOS>SUBSTRUCTURE
     1 TSS201      1 GROUP             4 D     TSS     0 **** TSS D 201
