@<TRIPOS>MOLECULE
1re0_AFB_1_ligand
   44    45     1     0     0
SMALL
NO_CHARGES


@<TRIPOS>ATOM
     1 OC7         41.7120    12.2160    35.5400 O.3          1 AFB702   0.0000
     2 C7          41.6340    10.9370    36.2550 C.3          1 AFB702   0.0000
     3 C8          42.9750    10.4790    36.7710 C.3          1 AFB702   0.0000
     4 C6          40.7910    10.7860    37.4900 C.3          1 AFB702   0.0000
     5 C5          41.1120     9.3440    37.9420 C.3          1 AFB702   0.0000
     6 C9          42.6250     9.1410    37.4240 C.3          1 AFB702   0.0000
     7 C10         43.5350     8.7580    38.5480 C.2          1 AFB702   0.0000
     8 C11         44.0620     7.5590    38.6970 C.2          1 AFB702   0.0000
     9 C12         44.9780     7.0910    39.8160 C.3          1 AFB702   0.0000
    10 C13         44.4180     5.8920    40.6060 C.3          1 AFB702   0.0000
    11 C14         44.2590     4.5810    39.8140 C.3          1 AFB702   0.0000
    12 C15         42.8780     3.9220    39.8640 C.3          1 AFB702   0.0000
    13 C16         42.8250     2.6630    39.0710 C.3          1 AFB702   0.0000
    14 O16         42.0060     4.9390    39.2700 O.3          1 AFB702   0.0000
    15 C1          40.7060     5.0400    39.6300 C.2          1 AFB702   0.0000
    16 OC1         40.1610     4.3330    40.4350 O.2          1 AFB702   0.0000
    17 C2          39.9910     6.1330    38.9320 C.2          1 AFB702   0.0000
    18 C3          40.5820     6.9190    38.0530 C.2          1 AFB702   0.0000
    19 C4          40.0980     8.2470    37.5120 C.3          1 AFB702   0.0000
    20 OC4         38.8340     8.6170    38.0610 O.3          1 AFB702   0.0000
    21 HC7         40.8008    12.4747    35.2193 H            1 AFB702   0.0000
    22 H2          41.3207    10.2508    35.5985 H            1 AFB702   0.0000
    23 H3          43.3463    11.1234    37.4395 H            1 AFB702   0.0000
    24 H4          43.6296    10.3587    36.0247 H            1 AFB702   0.0000
    25 H5          39.8191    10.8903    37.2788 H            1 AFB702   0.0000
    26 H6          41.0533    11.4506    38.1897 H            1 AFB702   0.0000
    27 H7          41.1392     9.3463    38.9416 H            1 AFB702   0.0000
    28 H8          42.6407     8.4221    36.7290 H            1 AFB702   0.0000
    29 H9          43.7575     9.4555    39.2292 H            1 AFB702   0.0000
    30 H10         43.8340     6.8827    37.9966 H            1 AFB702   0.0000
    31 H11         45.1170     7.8513    40.4505 H            1 AFB702   0.0000
    32 H12         45.8555     6.8253    39.4168 H            1 AFB702   0.0000
    33 H13         43.5175     6.1495    40.9565 H            1 AFB702   0.0000
    34 H14         45.0356     5.7143    41.3721 H            1 AFB702   0.0000
    35 H15         44.9228     3.9252    40.1737 H            1 AFB702   0.0000
    36 H16         44.4689     4.7763    38.8560 H            1 AFB702   0.0000
    37 H17         42.6112     3.7467    40.8117 H            1 AFB702   0.0000
    38 H18         41.9080     2.2689    39.1322 H            1 AFB702   0.0000
    39 H19         43.0391     2.8621    38.1147 H            1 AFB702   0.0000
    40 H20         43.4923     2.0124    39.4335 H            1 AFB702   0.0000
    41 H21         39.0230     6.2808    39.1349 H            1 AFB702   0.0000
    42 H22         41.4603     6.5970    37.6996 H            1 AFB702   0.0000
    43 H23         40.0391     8.2084    36.5145 H            1 AFB702   0.0000
    44 HC4         38.2987     7.7937    38.2498 H            1 AFB702   0.0000
@<TRIPOS>BOND
     1    1    2       1
     2    2    3       1
     3    2    4       1
     4    3    6       1
     5    4    5       1
     6    5    6       1
     7    5   19       1
     8    6    7       1
     9    7    8       2
    10    8    9       1
    11    9   10       1
    12   10   11       1
    13   11   12       1
    14   12   13       1
    15   12   14       1
    16   14   15       1
    17   15   16       2
    18   15   17       1
    19   17   18       2
    20   18   19       1
    21   19   20       1
    22    1   21       1
    23    2   22       1
    24    3   23       1
    25    3   24       1
    26    4   25       1
    27    4   26       1
    28    5   27       1
    29    6   28       1
    30    7   29       1
    31    8   30       1
    32    9   31       1
    33    9   32       1
    34   10   33       1
    35   10   34       1
    36   11   35       1
    37   11   36       1
    38   12   37       1
    39   13   38       1
    40   13   39       1
    41   13   40       1
    42   17   41       1
    43   18   42       1
    44   19   43       1
    45   20   44       1
@<TRIPOS>SUBSTRUCTURE
     1 AFB702      1 GROUP             4 A     AFB     0 **** AFB A 702
