@<TRIPOS>MOLECULE
2ght_SER_PRO_THR_PRO_SEP_1_ligand
   70    71     5     0     0
SMALL
NO_CHARGES


@<TRIPOS>ATOM
     1 N           41.7790    -4.7300    -3.9840 N.4          1 SER171   1.0000
     2 CA          41.3150    -3.3770    -3.5240 C.3          1 SER171   0.0000
     3 C           40.9390    -3.4220    -2.0410 C.2          1 SER171   0.0000
     4 O           40.2790    -4.3410    -1.5880 O.2          1 SER171   0.0000
     5 CB          40.0900    -2.9400    -4.3320 C.3          1 SER171   0.0000
     6 OG          39.6660    -1.6420    -3.9430 O.3          1 SER171   0.0000
     7 H1          42.5786    -5.0071    -3.4513 H            1 SER171   0.0000
     8 H2          41.0447    -5.3962    -3.8539 H            1 SER171   0.0000
     9 HA          42.0512    -2.7135    -3.6571 H            1 SER171   0.0000
    10 HB1         39.3454    -3.5888    -4.1752 H            1 SER171   0.0000
    11 HB2         40.3248    -2.9306    -5.3040 H            1 SER171   0.0000
    12 HG          39.7062    -1.0280    -4.7313 H            1 SER171   0.0000
    13 N           41.3520    -2.4130    -1.2680 N.am         2 PRO172   0.0000
    14 CA          41.0650    -2.3270     0.1650 C.3          2 PRO172   0.0000
    15 C           39.5980    -1.9290     0.4210 C.2          2 PRO172   0.0000
    16 O           39.0570    -2.2140     1.4860 O.2          2 PRO172   0.0000
    17 CB          42.0800    -1.2780     0.6560 C.3          2 PRO172   0.0000
    18 CG          42.1060    -0.3270    -0.5060 C.3          2 PRO172   0.0000
    19 CD          42.1060    -1.2450    -1.7360 C.3          2 PRO172   0.0000
    20 H7          41.2550    -3.2075     0.5992 H            2 PRO172   0.0000
    21 H8          41.7652    -0.8270     1.4912 H            2 PRO172   0.0000
    22 H9          42.9792    -1.6854     0.8158 H            2 PRO172   0.0000
    23 HG1         41.2977     0.2618    -0.5018 H            2 PRO172   0.0000
    24 HG2         42.9305     0.2385    -0.4843 H            2 PRO172   0.0000
    25 HD1         41.6498    -0.8086    -2.5115 H            2 PRO172   0.0000
    26 HD2         43.0376    -1.4982    -1.9968 H            2 PRO172   0.0000
    27 N           38.9790    -1.2460    -0.5410 N.am         3 THR173   0.0000
    28 CA          37.5870    -0.8240    -0.4070 C.3          3 THR173   0.0000
    29 C           36.6450    -1.9840    -0.7470 C.2          3 THR173   0.0000
    30 O           37.1050    -3.0790    -1.0280 O.2          3 THR173   0.0000
    31 CB          37.2800     0.3700    -1.3260 C.3          3 THR173   0.0000
    32 OG1         37.4090    -0.0210    -2.7030 O.3          3 THR173   0.0000
    33 CG2         38.1840     1.5460    -0.9910 C.3          3 THR173   0.0000
    34 H14         39.4798    -1.0165    -1.3756 H            3 THR173   0.0000
    35 H15         37.4260    -0.5482     0.5406 H            3 THR173   0.0000
    36 HB          36.3329     0.6496    -1.1684 H            3 THR173   0.0000
    37 H17         38.0943    -0.7450    -2.7811 H            3 THR173   0.0000
    38 HG21        37.9717     2.3128    -1.5968 H            3 THR173   0.0000
    39 HG22        38.0354     1.8206    -0.0410 H            3 THR173   0.0000
    40 HG23        39.1394     1.2779    -1.1149 H            3 THR173   0.0000
    41 N           35.3350    -1.7500    -0.6990 N.am         4 SEP174   0.0000
    42 CA          34.3710    -2.8110    -1.0020 C.3          4 SEP174   0.0000
    43 CB          32.9650    -2.4400    -0.5190 C.3          4 SEP174   0.0000
    44 OG          32.9120    -2.3890     0.8960 O.3          4 SEP174   0.0000
    45 C           34.3240    -3.0530    -2.5020 C.2          4 SEP174   0.0000
    46 O           34.0130    -2.1450    -3.2730 O.2          4 SEP174   0.0000
    47 P           31.3510    -2.0990     1.4300 P.3          4 SEP174   0.0000
    48 O1P         30.7010    -3.3560     1.7860 O.co2        4 SEP174   0.0000
    49 O2P         31.4000    -1.1130     2.5640 O.co2        4 SEP174  -1.0000
    50 O3P         30.5690    -1.4750     0.3260 O.co2        4 SEP174  -1.0000
    51 H21         34.6599    -3.6527    -0.5458 H            4 SEP174   0.0000
    52 H22         32.3151    -3.1259    -0.8462 H            4 SEP174   0.0000
    53 H23         32.7181    -1.5440    -0.8881 H            4 SEP174   0.0000
    54 H24         35.0050    -0.8386    -0.4530 H            4 SEP174   0.0000
    55 N           34.6210    -4.2880    -2.9370 N.am         5 PRO175   0.0000
    56 CA          34.5990    -4.5810    -4.3730 C.3          5 PRO175   0.0000
    57 C           33.2210    -4.4310    -4.9970 C.2          5 PRO175   0.0000
    58 O           32.2390    -4.3930    -4.2250 O.2          5 PRO175   0.0000
    59 CB          35.1290    -6.0130    -4.4400 C.3          5 PRO175   0.0000
    60 CG          34.6650    -6.5980    -3.1470 C.3          5 PRO175   0.0000
    61 CD          34.9680    -5.4890    -2.1610 C.3          5 PRO175   0.0000
    62 H25         35.2391    -3.9722    -4.8417 H            5 PRO175   0.0000
    63 H26         33.1046    -4.3652    -5.9880 H            5 PRO175   0.0000
    64 H27         34.7395    -6.5052    -5.2185 H            5 PRO175   0.0000
    65 H28         36.1269    -6.0252    -4.5034 H            5 PRO175   0.0000
    66 H29         33.6863    -6.8019    -3.1727 H            5 PRO175   0.0000
    67 H30         35.1730    -7.4298    -2.9233 H            5 PRO175   0.0000
    68 H31         34.4021    -5.5676    -1.3403 H            5 PRO175   0.0000
    69 H32         35.9336    -5.4874    -1.9011 H            5 PRO175   0.0000
    70 H33         42.0225    -4.6872    -4.9530 H            5 PRO175   0.0000
@<TRIPOS>BOND
     1    1    2       1
     2    2    5       1
     3    2    3       1
     4    5    6       1
     5    3    4       2
     6    1    7       1
     7    1    8       1
     8    2    9       1
     9    3   13      am
    10    5   10       1
    11    5   11       1
    12    6   12       1
    13   13   19       1
    14   13   14       1
    15   19   18       1
    16   18   17       1
    17   17   14       1
    18   14   15       1
    19   15   16       2
    20   19   26       1
    21   14   20       1
    22   15   27      am
    23   17   21       1
    24   17   22       1
    25   18   23       1
    26   18   24       1
    27   19   25       1
    28   27   28       1
    29   28   31       1
    30   28   29       1
    31   31   33       1
    32   31   32       1
    33   29   30       2
    34   33   40       1
    35   27   34       1
    36   28   35       1
    37   60   67       1
    38   31   36       1
    39   32   37       1
    40   33   38       1
    41   33   39       1
    42   29   41      am
    43   41   42       1
    44   42   43       1
    45   42   45       1
    46   43   44       1
    47   44   47       1
    48   45   46       2
    49   47   48      ar
    50   47   49      ar
    51   47   50      ar
    52    1   70       1
    53   61   69       1
    54   42   51       1
    55   43   52       1
    56   43   53       1
    57   41   54       1
    58   45   55      am
    59   55   61       1
    60   55   56       1
    61   61   60       1
    62   60   59       1
    63   59   56       1
    64   56   57       1
    65   57   58       2
    66   61   68       1
    67   56   62       1
    68   57   63       1
    69   59   64       1
    70   59   65       1
    71   60   66       1
@<TRIPOS>SUBSTRUCTURE
     1 SER171      1 RESIDUE           4 C     SER     0 **** SER C 171
     2 PRO172     13 RESIDUE           4 C     PRO     0 **** PRO C 172
     3 THR173     27 RESIDUE           4 C     THR     0 **** THR C 173
     4 SEP174     41 GROUP             4 C     SEP     0 **** SEP C 174
     5 PRO175     55 RESIDUE           4 C     PRO     0 **** PRO C 175
