@<TRIPOS>MOLECULE
2brc_CT5_1_ligand
   46    49     1     0     0
SMALL
NO_CHARGES


@<TRIPOS>ATOM
     1 C15         15.8320    -3.9980    -6.2080 C.ar         1 CT51215   0.0000
     2 C12         14.5870    -4.4520    -5.7630 C.ar         1 CT51215   0.0000
     3 O17         14.3010    -5.7910    -5.6770 O.3          1 CT51215   0.0000
     4 O18         12.3190    -3.9240    -4.9620 O.3          1 CT51215   0.0000
     5 C16         13.5520    -3.4690    -5.4030 C.ar         1 CT51215   0.0000
     6 C22         13.8600    -2.1150    -5.5050 C.ar         1 CT51215   0.0000
     7 C20         15.1210    -1.6830    -5.9400 C.ar         1 CT51215   0.0000
     8 C8          16.1060    -2.6260    -6.2720 C.ar         1 CT51215   0.0000
     9 C4          17.4630    -2.2010    -6.7400 C.2          1 CT51215   0.0000
    10 C1          17.7930    -1.3650    -7.8890 C.2          1 CT51215   0.0000
    11 C7          16.8980    -0.6970    -8.8830 C.3          1 CT51215   0.0000
    12 N5          19.1350    -1.3250    -7.8920 N.pl3        1 CT51215   0.0000
    13 C2          18.7650    -2.5760    -6.1260 C.2          1 CT51215   0.0000
    14 N3          19.7220    -2.0590    -6.8290 N.2          1 CT51215   0.0000
    15 C6          18.7770    -3.4260    -4.9260 C.ar         1 CT51215   0.0000
    16 C10         17.8940    -3.1560    -3.9040 C.ar         1 CT51215   0.0000
    17 C14         17.9130    -3.9760    -2.8050 C.ar         1 CT51215   0.0000
    18 C26         16.9710    -3.7600    -1.6480 C.3          1 CT51215   0.0000
    19 C27         15.6760    -3.0930    -2.0710 C.3          1 CT51215   0.0000
    20 C13         18.8580    -5.0860    -2.7260 C.ar         1 CT51215   0.0000
    21 C17         12.9140    -6.1600    -5.7600 C.3          1 CT51215   0.0000
    22 O25         18.7630    -5.8500    -1.6080 O.3          1 CT51215   0.0000
    23 C11         19.7380    -5.3620    -3.7660 C.ar         1 CT51215   0.0000
    24 C18         12.1530    -5.3280    -4.7220 C.3          1 CT51215   0.0000
    25 C9          19.7430    -4.5250    -4.8680 C.ar         1 CT51215   0.0000
    26 O24         20.5910    -4.6930    -5.8990 O.3          1 CT51215   0.0000
    27 H1          16.5318    -4.6574    -6.4825 H            1 CT51215   0.0000
    28 H2          13.1669    -1.4360    -5.2628 H            1 CT51215   0.0000
    29 H3          15.3180    -0.7054    -6.0135 H            1 CT51215   0.0000
    30 H4          17.4528    -0.1965    -9.5476 H            1 CT51215   0.0000
    31 H5          16.3523    -1.3878    -9.3573 H            1 CT51215   0.0000
    32 H6          16.2902    -0.0599    -8.4090 H            1 CT51215   0.0000
    33 H7          19.6682    -0.8271    -8.5759 H            1 CT51215   0.0000
    34 H8          17.2587    -2.3859    -3.9616 H            1 CT51215   0.0000
    35 H9          17.4234    -3.1810    -0.9697 H            1 CT51215   0.0000
    36 H10         16.7564    -4.6470    -1.2391 H            1 CT51215   0.0000
    37 H11         15.0870    -2.9718    -1.2720 H            1 CT51215   0.0000
    38 H12         15.8772    -2.2007    -2.4752 H            1 CT51215   0.0000
    39 H13         15.2101    -3.6667    -2.7446 H            1 CT51215   0.0000
    40 H14         12.8074    -7.1343    -5.5613 H            1 CT51215   0.0000
    41 H15         12.5634    -5.9664    -6.6763 H            1 CT51215   0.0000
    42 H16         19.3766    -6.6294    -1.4814 H            1 CT51215   0.0000
    43 H17         20.3541    -6.1483    -3.7189 H            1 CT51215   0.0000
    44 H18         11.1803    -5.5548    -4.7713 H            1 CT51215   0.0000
    45 H19         12.5004    -5.5466    -3.8101 H            1 CT51215   0.0000
    46 H20         21.2591    -5.4369    -5.8808 H            1 CT51215   0.0000
@<TRIPOS>BOND
     1    1    2      ar
     2    1    8      ar
     3    2    3       1
     4    2    5      ar
     5    3   21       1
     6    4    5       1
     7    4   24       1
     8    5    6      ar
     9    6    7      ar
    10    7    8      ar
    11    8    9       1
    12    9   10       2
    13    9   13       1
    14   10   11       1
    15   10   12       1
    16   12   14       1
    17   13   14       2
    18   13   15       1
    19   15   16      ar
    20   15   25      ar
    21   16   17      ar
    22   17   18       1
    23   17   20      ar
    24   18   19       1
    25   20   22       1
    26   20   23      ar
    27   21   24       1
    28   23   25      ar
    29   25   26       1
    30    1   27       1
    31    6   28       1
    32    7   29       1
    33   11   30       1
    34   11   31       1
    35   11   32       1
    36   12   33       1
    37   16   34       1
    38   18   35       1
    39   18   36       1
    40   19   37       1
    41   19   38       1
    42   19   39       1
    43   21   40       1
    44   21   41       1
    45   22   42       1
    46   23   43       1
    47   24   44       1
    48   24   45       1
    49   26   46       1
@<TRIPOS>SUBSTRUCTURE
     1 CT51215     1 GROUP             4 A     CT5     0 **** CT5 A1215
