@<TRIPOS>MOLECULE
4bwx_AGS_2_ligand
   43    45     1     0     0
SMALL
NO_CHARGES


@<TRIPOS>ATOM
     1 PG         -53.5880    19.7110    33.7960 P.3          1 AGS1647   0.0000
     2 S1G        -55.4510    18.9930    33.4350 S.2          1 AGS1647   0.0000
     3 O2G        -54.3490    20.7790    34.6420 O.co2        1 AGS1647  -1.0000
     4 O3G        -53.3860    18.2780    34.3740 O.co2        1 AGS1647  -1.0000
     5 PB         -53.6200    21.4260    31.7020 P.3          1 AGS1647   0.0000
     6 O1B        -54.1640    20.6750    30.4600 O.co2        1 AGS1647   0.0000
     7 O2B        -55.0150    22.1190    31.6600 O.co2        1 AGS1647  -1.0000
     8 O3B        -53.4980    19.9480    32.2510 O.3          1 AGS1647   0.0000
     9 PA         -50.9680    22.0710    31.2130 P.3          1 AGS1647   0.0000
    10 O1A        -50.2500    20.8380    31.8620 O.co2        1 AGS1647   0.0000
    11 O2A        -51.5870    22.1900    32.6330 O.co2        1 AGS1647  -1.0000
    12 O3A        -52.4750    21.9610    30.7250 O.3          1 AGS1647   0.0000
    13 O5'        -50.3870    23.5180    31.5350 O.3          1 AGS1647   0.0000
    14 C5'        -51.2030    24.6430    31.3360 C.3          1 AGS1647   0.0000
    15 C4'        -50.5440    25.5830    30.3650 C.3          1 AGS1647   0.0000
    16 O4'        -49.2150    25.7920    30.7290 O.3          1 AGS1647   0.0000
    17 C3'        -50.5980    25.0350    28.9830 C.3          1 AGS1647   0.0000
    18 O3'        -51.3730    25.8230    28.1650 O.3          1 AGS1647   0.0000
    19 C2'        -49.1930    25.0090    28.5350 C.3          1 AGS1647   0.0000
    20 O2'        -49.0840    25.5630    27.2740 O.3          1 AGS1647   0.0000
    21 C1'        -48.4510    25.7880    29.5630 C.3          1 AGS1647   0.0000
    22 N9         -47.1420    25.2240    29.8660 N.pl3        1 AGS1647   0.0000
    23 C8         -46.9220    23.9960    30.3770 C.2          1 AGS1647   0.0000
    24 N7         -45.6210    23.7970    30.5320 N.2          1 AGS1647   0.0000
    25 C5         -44.9520    24.8860    30.1310 C.ar         1 AGS1647   0.0000
    26 C6         -43.6070    25.2390    30.0660 C.ar         1 AGS1647   0.0000
    27 N6         -42.6010    24.3130    30.4990 N.pl3        1 AGS1647   0.0000
    28 N1         -43.2490    26.4470    29.5980 N.ar         1 AGS1647   0.0000
    29 C2         -44.1700    27.3390    29.1810 C.ar         1 AGS1647   0.0000
    30 N3         -45.4970    27.0290    29.2290 N.ar         1 AGS1647   0.0000
    31 C4         -45.9130    25.8270    29.6940 C.ar         1 AGS1647   0.0000
    32 H5'1       -51.3424    25.1109    32.2087 H            1 AGS1647   0.0000
    33 H5'2       -52.0865    24.3519    30.9690 H            1 AGS1647   0.0000
    34 H4'        -51.0263    26.4588    30.3847 H            1 AGS1647   0.0000
    35 H3'        -50.9641    24.1046    29.0022 H            1 AGS1647   0.0000
    36 H5         -50.8178    26.1625    27.4057 H            1 AGS1647   0.0000
    37 H2'        -48.8603    24.0661    28.5200 H            1 AGS1647   0.0000
    38 H7         -48.7129    24.8827    26.6420 H            1 AGS1647   0.0000
    39 H1'        -48.3367    26.7284    29.2426 H            1 AGS1647   0.0000
    40 H9         -47.6352    23.3332    30.6053 H            1 AGS1647   0.0000
    41 H10        -41.6348    24.5665    30.4524 H            1 AGS1647   0.0000
    42 H11        -42.8658    23.4139    30.8475 H            1 AGS1647   0.0000
    43 H12        -43.8789    28.2311    28.8353 H            1 AGS1647   0.0000
@<TRIPOS>BOND
     1    1    2       2
     2    1    3      ar
     3    1    4      ar
     4    1    8       1
     5    5    6      ar
     6    5    7      ar
     7    5    8       1
     8    5   12       1
     9    9   10      ar
    10    9   11      ar
    11    9   12       1
    12    9   13       1
    13   13   14       1
    14   14   15       1
    15   15   16       1
    16   15   17       1
    17   16   21       1
    18   17   18       1
    19   17   19       1
    20   19   20       1
    21   19   21       1
    22   21   22       1
    23   22   23       1
    24   22   31       1
    25   23   24       2
    26   24   25       1
    27   25   26      ar
    28   25   31      ar
    29   26   27       1
    30   26   28      ar
    31   28   29      ar
    32   29   30      ar
    33   30   31      ar
    34   29   43       1
    35   27   42       1
    36   27   41       1
    37   23   40       1
    38   14   32       1
    39   14   33       1
    40   15   34       1
    41   17   35       1
    42   18   36       1
    43   19   37       1
    44   20   38       1
    45   21   39       1
@<TRIPOS>SUBSTRUCTURE
     1 AGS1647     1 GROUP             4 B     AGS     0 **** AGS B1647
