@<TRIPOS>MOLECULE
3osh_OIN_1_ligand
   45    47     1     0     0
SMALL
NO_CHARGES


@<TRIPOS>ATOM
     1 C10        -12.6340    12.6490     8.5030 C.3          1 OIN5811   0.0000
     2 N          -12.9230    12.2150     7.1310 N.4          1 OIN5811   1.0000
     3 C11        -13.7340    13.0940     6.3430 C.3          1 OIN5811   0.0000
     4 C17        -13.0520    14.4270     6.1530 C.3          1 OIN5811   0.0000
     5 C16        -11.6080    13.9360     6.1410 C.3          1 OIN5811   0.0000
     6 C15        -11.7170    12.4800     6.3700 C.3          1 OIN5811   0.0000
     7 C14        -11.7980    11.5580     5.1610 C.3          1 OIN5811   0.0000
     8 C13        -13.0460    11.9560     4.3580 C.3          1 OIN5811   0.0000
     9 C12        -14.2700    12.3850     5.1580 C.3          1 OIN5811   0.0000
    10 O2         -13.2430    11.0100     3.3130 O.3          1 OIN5811   0.0000
    11 C7         -14.3390    11.2560     2.3940 C.2          1 OIN5811   0.0000
    12 O3         -14.9800    12.2980     2.4020 O.2          1 OIN5811   0.0000
    13 C9         -14.6230    10.1220     1.4350 C.3          1 OIN5811   0.0000
    14 C8         -15.7160    10.4920     0.4890 C.3          1 OIN5811   0.0000
    15 OH         -16.9160    10.6870     1.2090 O.3          1 OIN5811   0.0000
    16 C6         -14.6500     8.9070     2.2740 C.ar         1 OIN5811   0.0000
    17 C5         -14.0610     7.7630     1.7000 C.ar         1 OIN5811   0.0000
    18 C4         -13.8260     6.6160     2.4880 C.ar         1 OIN5811   0.0000
    19 C3         -14.1680     6.6210     3.8680 C.ar         1 OIN5811   0.0000
    20 C2         -14.7490     7.7840     4.4520 C.ar         1 OIN5811   0.0000
    21 C1         -14.9820     8.9400     3.6550 C.ar         1 OIN5811   0.0000
    22 H1         -12.0645    11.9634     8.9565 H            1 OIN5811   0.0000
    23 H2         -12.1492    13.5233     8.4809 H            1 OIN5811   0.0000
    24 H3         -13.4914    12.7560     9.0064 H            1 OIN5811   0.0000
    25 H4         -14.5329    13.2898     6.9117 H            1 OIN5811   0.0000
    26 H5         -13.2313    15.0543     6.9109 H            1 OIN5811   0.0000
    27 H6         -13.3096    14.8635     5.2910 H            1 OIN5811   0.0000
    28 H7         -11.0796    14.3709     6.8702 H            1 OIN5811   0.0000
    29 H8         -11.1767    14.1248     5.2587 H            1 OIN5811   0.0000
    30 H9         -10.9342    12.1952     6.9233 H            1 OIN5811   0.0000
    31 H10        -11.8744    10.6073     5.4614 H            1 OIN5811   0.0000
    32 H11        -10.9801    11.6642     4.5955 H            1 OIN5811   0.0000
    33 H12        -12.7681    12.7887     3.8790 H            1 OIN5811   0.0000
    34 H13        -14.8465    12.9960     4.6154 H            1 OIN5811   0.0000
    35 H14        -14.8024    11.5864     5.4388 H            1 OIN5811   0.0000
    36 H15        -13.8010    10.0380     0.8718 H            1 OIN5811   0.0000
    37 H16        -15.8428     9.7574    -0.1776 H            1 OIN5811   0.0000
    38 H17        -15.4724    11.3365     0.0121 H            1 OIN5811   0.0000
    39 HH         -17.4814    11.3638     0.7375 H            1 OIN5811   0.0000
    40 H19        -13.8090     7.7638     0.7323 H            1 OIN5811   0.0000
    41 H20        -13.4193     5.8005     2.0761 H            1 OIN5811   0.0000
    42 H21        -14.0011     5.8096     4.4281 H            1 OIN5811   0.0000
    43 H22        -14.9930     7.7878     5.4218 H            1 OIN5811   0.0000
    44 H23        -15.3744     9.7649     4.0619 H            1 OIN5811   0.0000
    45 H24        -13.2164    11.2605     7.0773 H            1 OIN5811   0.0000
@<TRIPOS>BOND
     1    1    2       1
     2    2    3       1
     3    2    6       1
     4    3    4       1
     5    3    9       1
     6    4    5       1
     7    5    6       1
     8    6    7       1
     9    7    8       1
    10    8    9       1
    11    8   10       1
    12   10   11       1
    13   11   12       2
    14   11   13       1
    15   13   14       1
    16   13   16       1
    17   14   15       1
    18   16   17      ar
    19   16   21      ar
    20   17   18      ar
    21   18   19      ar
    22   19   20      ar
    23   20   21      ar
    24    1   22       1
    25    1   23       1
    26    1   24       1
    27    3   25       1
    28    4   26       1
    29    4   27       1
    30    5   28       1
    31    5   29       1
    32    6   30       1
    33    7   31       1
    34    7   32       1
    35    8   33       1
    36    9   34       1
    37    9   35       1
    38   13   36       1
    39   14   37       1
    40   14   38       1
    41   15   39       1
    42   17   40       1
    43   18   41       1
    44   19   42       1
    45   20   43       1
    46   21   44       1
    47    2   45       1
@<TRIPOS>SUBSTRUCTURE
     1 OIN5811     1 GROUP             4 A     OIN     0 **** OIN A5811
