@<TRIPOS>MOLECULE
3ty3_GGG_1_ligand
   24    23     1     0     0
SMALL
NO_CHARGES


@<TRIPOS>ATOM
     1 N1          -7.8040     1.0460     8.9660 N.4          1 GGG363   1.0000
     2 CA1         -8.2520     0.5880    10.3190 C.3          1 GGG363   0.0000
     3 C1          -9.3820    -0.4380    10.2550 C.2          1 GGG363   0.0000
     4 O1          -9.9180    -0.6870     9.1860 O.2          1 GGG363   0.0000
     5 N2          -9.7220    -1.0320    11.4010 N.am         1 GGG363   0.0000
     6 CA2        -10.7930    -2.0260    11.4710 C.3          1 GGG363   0.0000
     7 C2         -10.2980    -3.4640    11.4340 C.2          1 GGG363   0.0000
     8 O2         -11.0960    -4.4110    11.5290 O.2          1 GGG363   0.0000
     9 N3          -8.9870    -3.6360    11.3200 N.am         1 GGG363   0.0000
    10 CA3         -8.3800    -4.9690    11.2360 C.3          1 GGG363   0.0000
    11 C3          -7.2330    -5.1570    12.2090 C.2          1 GGG363   0.0000
    12 O3          -6.1870    -5.6830    11.8250 O.co2        1 GGG363   0.0000
    13 O           -7.3190    -4.7680    13.3880 O.co2        1 GGG363  -1.0000
    14 H1          -7.0664     1.7135     9.0674 H            1 GGG363   0.0000
    15 H2          -7.4738     0.2616     8.4410 H            1 GGG363   0.0000
    16 HA11        -8.5713     1.3826    10.8353 H            1 GGG363   0.0000
    17 HA12        -7.4726     0.1754    10.7905 H            1 GGG363   0.0000
    18 H5          -9.2296    -0.7902    12.2371 H            1 GGG363   0.0000
    19 HA21       -11.4068    -1.8836    10.6945 H            1 GGG363   0.0000
    20 HA22       -11.2966    -1.8876    12.3238 H            1 GGG363   0.0000
    21 H8          -8.3940    -2.8313    11.2904 H            1 GGG363   0.0000
    22 HA31        -8.0359    -5.1050    10.3070 H            1 GGG363   0.0000
    23 HA32        -9.0823    -5.6526    11.4347 H            1 GGG363   0.0000
    24 H11         -8.5725     1.4688     8.4858 H            1 GGG363   0.0000
@<TRIPOS>BOND
     1    1    2       1
     2    2    3       1
     3    3    4       2
     4    3    5      am
     5    5    6       1
     6    6    7       1
     7    7    8       2
     8    7    9      am
     9    9   10       1
    10   10   11       1
    11   11   12      ar
    12   11   13      ar
    13    1   14       1
    14    1   15       1
    15    2   16       1
    16    2   17       1
    17    5   18       1
    18    6   19       1
    19    6   20       1
    20    9   21       1
    21   10   22       1
    22   10   23       1
    23    1   24       1
@<TRIPOS>SUBSTRUCTURE
     1 GGG363      1 GROUP             4 A     GGG     0 **** GGG A 363
