@<TRIPOS>MOLECULE
2p1o_NLA_1_ligand
   23    24     1     0     0
SMALL
NO_CHARGES


@<TRIPOS>ATOM
     1 C1           7.0000  -111.3720   -26.0280 C.ar         1 NLA801   0.0000
     2 C2           6.7320  -111.7160   -27.3680 C.ar         1 NLA801   0.0000
     3 C3           5.4140  -111.6640   -27.8490 C.ar         1 NLA801   0.0000
     4 C4           4.3660  -111.2920   -27.0080 C.ar         1 NLA801   0.0000
     5 C5           4.6230  -110.9850   -25.6850 C.ar         1 NLA801   0.0000
     6 C6           5.9310  -110.9950   -25.1960 C.ar         1 NLA801   0.0000
     7 C7           6.1300  -110.6760   -23.8520 C.ar         1 NLA801   0.0000
     8 C8           7.4280  -110.6640   -23.3330 C.ar         1 NLA801   0.0000
     9 C9           8.5080  -111.0540   -24.1530 C.ar         1 NLA801   0.0000
    10 C10          8.3220  -111.4030   -25.5100 C.ar         1 NLA801   0.0000
    11 C11          7.8080  -112.1360   -28.4000 C.3          1 NLA801   0.0000
    12 C12          8.4250  -113.4880   -27.9960 C.2          1 NLA801   0.0000
    13 O1           9.6590  -113.6120   -28.1280 O.co2        1 NLA801   0.0000
    14 O2           7.6440  -114.3800   -27.5810 O.co2        1 NLA801  -1.0000
    15 H1           5.2252  -111.8958   -28.8033 H            1 NLA801   0.0000
    16 H2           3.4314  -111.2474   -27.3608 H            1 NLA801   0.0000
    17 H3           3.8664  -110.7539   -25.0733 H            1 NLA801   0.0000
    18 H4           5.3504  -110.4578   -23.2650 H            1 NLA801   0.0000
    19 H5           7.5899  -110.3811   -22.3876 H            1 NLA801   0.0000
    20 H6           9.4288  -111.0843   -23.7641 H            1 NLA801   0.0000
    21 H7           9.0963  -111.6634   -26.0867 H            1 NLA801   0.0000
    22 H8           8.5259  -111.4405   -28.4318 H            1 NLA801   0.0000
    23 H9           7.3860  -112.2209   -29.3026 H            1 NLA801   0.0000
@<TRIPOS>BOND
     1    1    2      ar
     2    1    6      ar
     3    1   10      ar
     4    2    3      ar
     5    2   11       1
     6    3    4      ar
     7    4    5      ar
     8    5    6      ar
     9    6    7      ar
    10    7    8      ar
    11    8    9      ar
    12    9   10      ar
    13   11   12       1
    14   12   13      ar
    15   12   14      ar
    16    3   15       1
    17    4   16       1
    18    5   17       1
    19    7   18       1
    20    8   19       1
    21    9   20       1
    22   10   21       1
    23   11   22       1
    24   11   23       1
@<TRIPOS>SUBSTRUCTURE
     1 NLA801      1 GROUP             4 B     NLA     0 **** NLA B 801
