@<TRIPOS>MOLECULE
2am2_2LG_1_ligand
   48    50     1     0     0
SMALL
NO_CHARGES


@<TRIPOS>ATOM
     1 C4          11.9860    46.5450    55.9120 C.3          1 2LG1000   0.0000
     2 C6          11.4760    46.4450    53.6050 C.3          1 2LG1000   0.0000
     3 C7          15.1220    44.7260    54.5920 C.2          1 2LG1000   0.0000
     4 C8          14.8400    45.2570    56.9680 C.1          1 2LG1000   0.0000
     5 C13         18.2250    42.7950    53.9370 C.ar         1 2LG1000   0.0000
     6 C15         19.2600    43.3190    53.1500 C.ar         1 2LG1000   0.0000
     7 C17         20.5750    42.8510    53.2700 C.ar         1 2LG1000   0.0000
     8 C21         20.8880    41.8250    54.1980 C.ar         1 2LG1000   0.0000
     9 C26         22.3220    41.3530    50.7970 C.3          1 2LG1000   0.0000
    10 C28         21.5470    41.8520    49.5700 C.3          1 2LG1000   0.0000
    11 C1          13.1010    45.8600    55.1740 C.2          1 2LG1000   0.0000
    12 C2          12.8120    45.8030    53.8720 C.2          1 2LG1000   0.0000
    13 C3          14.3910    45.2640    55.5810 C.2          1 2LG1000   0.0000
    14 S5          14.1810    44.9820    53.1210 S.3          1 2LG1000   0.0000
    15 C9          10.7810    46.4570    54.9660 C.3          1 2LG1000   0.0000
    16 N10         16.3430    44.1090    54.7050 N.am         1 2LG1000   0.0000
    17 N11         15.2050    45.2590    58.0750 N.1          1 2LG1000   0.0000
    18 C12         16.8900    43.3680    53.7300 C.2          1 2LG1000   0.0000
    19 O14         16.3290    43.1970    52.6520 O.2          1 2LG1000   0.0000
    20 C16         18.5080    41.7510    54.8950 C.ar         1 2LG1000   0.0000
    21 C18         19.8520    41.2730    55.0120 C.ar         1 2LG1000   0.0000
    22 CL19        17.2650    41.0630    55.9150 Cl           1 2LG1000   0.0000
    23 S20         21.8400    43.6260    52.2040 S.o2         1 2LG1000   0.0000
    24 N22         23.0150    42.4590    51.6020 N.3          1 2LG1000   0.0000
    25 O23         22.5550    44.5900    52.9760 O.2          1 2LG1000   0.0000
    26 O24         21.1950    44.3070    51.1160 O.2          1 2LG1000   0.0000
    27 C25         23.9890    43.2380    50.7450 C.3          1 2LG1000   0.0000
    28 C27         25.1080    42.3720    50.1430 C.3          1 2LG1000   0.0000
    29 H1          12.2199    47.4994    56.0973 H            1 2LG1000   0.0000
    30 H2          11.7929    46.0757    56.7737 H            1 2LG1000   0.0000
    31 H3          10.9512    45.9082    52.9444 H            1 2LG1000   0.0000
    32 H4          11.5936    47.3760    53.2595 H            1 2LG1000   0.0000
    33 H5          19.0555    44.0415    52.4896 H            1 2LG1000   0.0000
    34 H6          21.8267    41.4906    54.2818 H            1 2LG1000   0.0000
    35 H7          23.0205    40.7089    50.4850 H            1 2LG1000   0.0000
    36 H8          21.6801    40.8815    51.4017 H            1 2LG1000   0.0000
    37 H9          21.1269    41.0744    49.1022 H            1 2LG1000   0.0000
    38 H10         20.8344    42.4897    49.8625 H            1 2LG1000   0.0000
    39 H11         22.1747    42.3171    48.9458 H            1 2LG1000   0.0000
    40 H12         10.1792    47.2497    55.0637 H            1 2LG1000   0.0000
    41 H13         10.2561    45.6194    55.1173 H            1 2LG1000   0.0000
    42 H14         16.8514    44.2177    55.5592 H            1 2LG1000   0.0000
    43 H15         20.0670    40.5487    55.6671 H            1 2LG1000   0.0000
    44 H16         24.4084    43.9489    51.3096 H            1 2LG1000   0.0000
    45 H17         23.4810    43.6635    49.9961 H            1 2LG1000   0.0000
    46 H18         25.7131    42.9457    49.5911 H            1 2LG1000   0.0000
    47 H19         25.6330    41.9462    50.8799 H            1 2LG1000   0.0000
    48 H20         24.7056    41.6609    49.5665 H            1 2LG1000   0.0000
@<TRIPOS>BOND
     1    1   11       1
     2    1   15       1
     3    2   12       1
     4    2   15       1
     5    3   13       2
     6    3   14       1
     7    3   16       1
     8    4   13       1
     9    4   17       3
    10    5    6      ar
    11    5   18       1
    12    5   20      ar
    13    6    7      ar
    14    7    8      ar
    15    7   23       1
    16    8   21      ar
    17    9   10       1
    18    9   24       1
    19   11   12       2
    20   11   13       1
    21   12   14       1
    22   16   18      am
    23   18   19       2
    24   20   21      ar
    25   20   22       1
    26   23   24       1
    27   23   25       2
    28   23   26       2
    29   24   27       1
    30   27   28       1
    31    1   29       1
    32    1   30       1
    33    2   31       1
    34    2   32       1
    35    6   33       1
    36    8   34       1
    37    9   35       1
    38    9   36       1
    39   10   37       1
    40   10   38       1
    41   10   39       1
    42   15   40       1
    43   15   41       1
    44   16   42       1
    45   21   43       1
    46   27   44       1
    47   27   45       1
    48   28   46       1
    49   28   47       1
    50   28   48       1
@<TRIPOS>SUBSTRUCTURE
     1 2LG1000     1 GROUP             4 A     2LG     0 **** 2LG A1000
