@<TRIPOS>MOLECULE
4oxx_FMN_1_ligand
   50    52     1     0     0
SMALL
NO_CHARGES


@<TRIPOS>ATOM
     1 N1          -9.5880   -41.5400     8.7460 N.2          1 FMN200   0.0000
     2 C2          -8.6620   -41.5290     9.7390 C.2          1 FMN200   0.0000
     3 O2          -8.5410   -40.5280    10.4610 O.2          1 FMN200   0.0000
     4 N3          -7.8730   -42.6120     9.9740 N.pl3        1 FMN200   0.0000
     5 C4          -8.0010   -43.7730     9.2780 C.2          1 FMN200   0.0000
     6 O4          -7.2230   -44.7310     9.4980 O.2          1 FMN200   0.0000
     7 C4A         -9.0050   -43.8200     8.2710 C.2          1 FMN200   0.0000
     8 N5          -9.2010   -44.9640     7.5540 N.2          1 FMN200   0.0000
     9 C5A        -10.2570   -45.0040     6.6410 C.ar         1 FMN200   0.0000
    10 C6         -10.5610   -46.2150     6.0360 C.ar         1 FMN200   0.0000
    11 C7         -11.5900   -46.2990     5.1220 C.ar         1 FMN200   0.0000
    12 C7M        -11.8320   -47.6250     4.4320 C.3          1 FMN200   0.0000
    13 C8         -12.3300   -45.1470     4.8120 C.ar         1 FMN200   0.0000
    14 C8M        -13.4600   -45.1820     3.7980 C.3          1 FMN200   0.0000
    15 C9         -12.0260   -43.9080     5.4060 C.ar         1 FMN200   0.0000
    16 C9A        -10.9810   -43.8540     6.3410 C.ar         1 FMN200   0.0000
    17 N10        -10.6690   -42.6450     7.0020 N.pl3        1 FMN200   0.0000
    18 C10         -9.7530   -42.6610     8.0350 C.2          1 FMN200   0.0000
    19 C1'        -11.4450   -41.4120     6.7610 C.3          1 FMN200   0.0000
    20 C2'        -10.9330   -40.6320     5.5140 C.3          1 FMN200   0.0000
    21 O2'         -9.6050   -40.1570     5.6770 O.3          1 FMN200   0.0000
    22 C3'        -11.8450   -39.4240     5.3130 C.3          1 FMN200   0.0000
    23 O3'        -13.1340   -39.9450     4.8440 O.3          1 FMN200   0.0000
    24 C4'        -11.3150   -38.3350     4.3590 C.3          1 FMN200   0.0000
    25 O4'        -12.1950   -37.2330     4.3290 O.3          1 FMN200   0.0000
    26 C5'        -11.1500   -38.8480     2.9570 C.3          1 FMN200   0.0000
    27 O5'        -10.5020   -37.8510     2.1540 O.3          1 FMN200   0.0000
    28 P          -10.4150   -38.0420     0.5910 P.3          1 FMN200   0.0000
    29 O1P         -9.9130   -39.4470     0.3100 O.co2        1 FMN200   0.0000
    30 O2P        -11.8160   -37.8430     0.0270 O.co2        1 FMN200  -1.0000
    31 O3P         -9.4770   -36.9700     0.1410 O.co2        1 FMN200  -1.0000
    32 H1          -7.1726   -42.5520    10.6853 H            1 FMN200   0.0000
    33 H2         -10.0308   -47.0316     6.2641 H            1 FMN200   0.0000
    34 H7M1       -12.6034   -47.5369     3.8018 H            1 FMN200   0.0000
    35 H7M2       -11.0135   -47.8897     3.9221 H            1 FMN200   0.0000
    36 H7M3       -12.0389   -48.3241     5.1165 H            1 FMN200   0.0000
    37 H8M1       -13.8622   -44.2702     3.7156 H            1 FMN200   0.0000
    38 H8M2       -13.1020   -45.4700     2.9098 H            1 FMN200   0.0000
    39 H8M3       -14.1598   -45.8289     4.1010 H            1 FMN200   0.0000
    40 H9         -12.5424   -43.0856     5.1675 H            1 FMN200   0.0000
    41 H1'1       -11.3694   -40.8212     7.5643 H            1 FMN200   0.0000
    42 H1'2       -12.4036   -41.6573     6.6167 H            1 FMN200   0.0000
    43 H2'        -10.9795   -41.2229     4.7086 H            1 FMN200   0.0000
    44 H13         -8.9905   -40.9310     5.8295 H            1 FMN200   0.0000
    45 H3'        -11.9934   -39.0011     6.2070 H            1 FMN200   0.0000
    46 H15        -13.0013   -40.4384     3.9844 H            1 FMN200   0.0000
    47 H4'        -10.4249   -38.0240     4.6922 H            1 FMN200   0.0000
    48 H17        -11.9314   -36.5766     5.0359 H            1 FMN200   0.0000
    49 H5'1       -12.0487   -39.0547     2.5701 H            1 FMN200   0.0000
    50 H5'2       -10.5935   -39.6787     2.9697 H            1 FMN200   0.0000
@<TRIPOS>BOND
     1    1    2       1
     2    1   18       2
     3    2    3       2
     4    2    4       1
     5    4    5       1
     6    5    6       2
     7    5    7       1
     8    7    8       2
     9    7   18       1
    10    8    9       1
    11    9   10      ar
    12    9   16      ar
    13   10   11      ar
    14   11   12       1
    15   11   13      ar
    16   13   14       1
    17   13   15      ar
    18   15   16      ar
    19   16   17       1
    20   17   18       1
    21   17   19       1
    22   19   20       1
    23   20   21       1
    24   20   22       1
    25   22   23       1
    26   22   24       1
    27   24   25       1
    28   24   26       1
    29   26   27       1
    30   27   28       1
    31   28   29      ar
    32   28   30      ar
    33   28   31      ar
    34    4   32       1
    35   10   33       1
    36   12   34       1
    37   12   35       1
    38   12   36       1
    39   14   37       1
    40   14   38       1
    41   14   39       1
    42   15   40       1
    43   19   41       1
    44   19   42       1
    45   20   43       1
    46   21   44       1
    47   22   45       1
    48   23   46       1
    49   24   47       1
    50   25   48       1
    51   26   49       1
    52   26   50       1
@<TRIPOS>SUBSTRUCTURE
     1 FMN200      1 GROUP             4 A     FMN     0 **** FMN A 200
