@<TRIPOS>MOLECULE
2hw2_RFP_1_ligand
  118   122     1     0     0
SMALL
NO_CHARGES


@<TRIPOS>ATOM
     1 C1         -12.1940     6.9340   -21.1300 C.ar         1 RFP1200   0.0000
     2 C2         -12.8050     8.1620   -20.8790 C.ar         1 RFP1200   0.0000
     3 C3         -12.2590     9.0140   -19.9250 C.ar         1 RFP1200   0.0000
     4 C4         -11.0880     8.6600   -19.2330 C.ar         1 RFP1200   0.0000
     5 C5          -9.3150     6.9290   -18.7860 C.ar         1 RFP1200   0.0000
     6 C6          -8.8380     5.6690   -19.0140 C.ar         1 RFP1200   0.0000
     7 C7          -9.3670     4.8420   -19.9820 C.ar         1 RFP1200   0.0000
     8 C8         -10.4520     5.2850   -20.6760 C.ar         1 RFP1200   0.0000
     9 C9         -11.0440     6.5450   -20.4220 C.ar         1 RFP1200   0.0000
    10 C10        -10.4720     7.4000   -19.4610 C.ar         1 RFP1200   0.0000
    11 C11         -8.4910     7.4830   -17.6630 C.2          1 RFP1200   0.0000
    12 C12         -7.6110     6.3680   -17.1450 C.3          1 RFP1200   0.0000
    13 C13         -6.1490     6.7430   -16.9490 C.3          1 RFP1200   0.0000
    14 C14         -8.7420     3.4960   -20.2600 C.3          1 RFP1200   0.0000
    15 C15        -14.3110     9.4600   -22.3070 C.2          1 RFP1200   0.0000
    16 C16        -15.6550     9.5430   -22.9080 C.2          1 RFP1200   0.0000
    17 C17        -16.8190     9.2210   -22.3160 C.2          1 RFP1200   0.0000
    18 C18        -17.0060     8.7910   -20.9050 C.2          1 RFP1200   0.0000
    19 C19        -18.2380     8.3880   -20.5380 C.2          1 RFP1200   0.0000
    20 C20        -18.7320     7.8740   -19.1590 C.3          1 RFP1200   0.0000
    21 C21        -17.5470     7.2460   -18.3740 C.3          1 RFP1200   0.0000
    22 C22        -17.9370     6.7560   -16.9610 C.3          1 RFP1200   0.0000
    23 C23        -16.7700     6.0870   -16.2320 C.3          1 RFP1200   0.0000
    24 C24        -15.4590     6.9540   -16.1950 C.3          1 RFP1200   0.0000
    25 C25        -14.3400     6.2000   -15.3880 C.3          1 RFP1200   0.0000
    26 C26        -12.9340     6.8190   -15.3980 C.3          1 RFP1200   0.0000
    27 C27        -11.9150     5.8640   -14.7040 C.3          1 RFP1200   0.0000
    28 C28        -10.4410     6.3590   -14.7020 C.2          1 RFP1200   0.0000
    29 C29         -9.5800     5.7490   -15.5680 C.2          1 RFP1200   0.0000
    30 C30        -15.7220    10.0130   -24.3360 C.3          1 RFP1200   0.0000
    31 C31        -19.3160     9.0730   -18.4000 C.3          1 RFP1200   0.0000
    32 C32        -19.1470     5.7750   -17.0110 C.3          1 RFP1200   0.0000
    33 C33        -15.7860     8.3230   -15.5620 C.3          1 RFP1200   0.0000
    34 C34        -12.5520     6.9920   -16.8660 C.3          1 RFP1200   0.0000
    35 C35        -15.0960     5.0240   -13.3270 C.2          1 RFP1200   0.0000
    36 C36        -15.5220     5.2060   -11.8920 C.3          1 RFP1200   0.0000
    37 C37        -11.7220     3.4930   -14.5420 C.3          1 RFP1200   0.0000
    38 C38        -10.2210    13.4480   -18.1840 C.3          1 RFP1200   0.0000
    39 C39        -11.8600    14.6910   -19.6840 C.3          1 RFP1200   0.0000
    40 C40        -12.7320    13.7460   -20.5030 C.3          1 RFP1200   0.0000
    41 C41        -13.6410    12.8200   -18.3450 C.3          1 RFP1200   0.0000
    42 C42        -12.6690    13.6910   -17.5340 C.3          1 RFP1200   0.0000
    43 C43        -12.9700    10.2750   -19.7100 C.2          1 RFP1200   0.0000
    44 N1         -13.9840     8.4070   -21.5590 N.am         1 RFP1200   0.0000
    45 N2         -12.2780    11.3570   -19.8200 N.2          1 RFP1200   0.0000
    46 N3         -12.8970    12.6200   -19.5880 N.pl3        1 RFP1200   0.0000
    47 N4         -11.5750    13.9460   -18.4580 N.4          1 RFP1200   1.0000
    48 O1         -12.8320     6.1350   -22.0730 O.3          1 RFP1200   0.0000
    49 O2         -10.9630     4.4690   -21.6260 O.3          1 RFP1200   0.0000
    50 O3          -7.7450     5.3560   -18.2420 O.3          1 RFP1200   0.0000
    51 O4          -8.6210     8.5800   -17.0980 O.2          1 RFP1200   0.0000
    52 O5          -8.1440     6.0860   -15.7630 O.3          1 RFP1200   0.0000
    53 O6         -12.0400     4.5930   -15.3720 O.3          1 RFP1200   0.0000
    54 O7         -14.7360     6.2190   -13.9850 O.3          1 RFP1200   0.0000
    55 O8         -14.9760     3.9590   -13.9580 O.2          1 RFP1200   0.0000
    56 O9         -16.4830     4.7980   -16.8590 O.3          1 RFP1200   0.0000
    57 O10        -16.9930     6.1430   -19.0830 O.3          1 RFP1200   0.0000
    58 O11        -13.4460    10.2650   -22.5220 O.2          1 RFP1200   0.0000
    59 O12        -10.5540     9.5300   -18.3270 O.3          1 RFP1200   0.0000
    60 H1          -5.6446     5.9504   -16.6063 H            1 RFP1200   0.0000
    61 H2          -5.7594     7.0336   -17.8229 H            1 RFP1200   0.0000
    62 H3          -6.0824     7.4913   -16.2890 H            1 RFP1200   0.0000
    63 H4          -9.2517     3.0355   -20.9868 H            1 RFP1200   0.0000
    64 H5          -7.7925     3.6223   -20.5472 H            1 RFP1200   0.0000
    65 H6          -8.7679     2.9387   -19.4301 H            1 RFP1200   0.0000
    66 H7         -17.6416     9.2764   -22.8819 H            1 RFP1200   0.0000
    67 H8         -16.2470     8.8006   -20.2540 H            1 RFP1200   0.0000
    68 H9         -18.9331     8.4253   -21.2560 H            1 RFP1200   0.0000
    69 H10        -19.4446     7.1857   -19.2950 H            1 RFP1200   0.0000
    70 H11        -16.8354     7.9417   -18.2763 H            1 RFP1200   0.0000
    71 H12        -18.2134     7.5546   -16.4264 H            1 RFP1200   0.0000
    72 H13        -17.0532     5.9151   -15.2885 H            1 RFP1200   0.0000
    73 H14        -15.1404     7.0987   -17.1318 H            1 RFP1200   0.0000
    74 H15        -14.2863     5.2526   -15.7035 H            1 RFP1200   0.0000
    75 H16        -12.9443     7.7064   -14.9372 H            1 RFP1200   0.0000
    76 H17        -12.2020     5.7434   -13.7537 H            1 RFP1200   0.0000
    77 H18        -10.1372     7.0918   -14.0932 H            1 RFP1200   0.0000
    78 H19         -9.9496     5.0048   -16.1243 H            1 RFP1200   0.0000
    79 H20        -16.6755    10.0301   -24.6369 H            1 RFP1200   0.0000
    80 H21        -15.3349    10.9326   -24.4028 H            1 RFP1200   0.0000
    81 H22        -15.2002     9.3886   -24.9173 H            1 RFP1200   0.0000
    82 H23        -19.6440     8.7728   -17.5043 H            1 RFP1200   0.0000
    83 H24        -18.6076     9.7685   -18.2797 H            1 RFP1200   0.0000
    84 H25        -20.0770     9.4590   -18.9214 H            1 RFP1200   0.0000
    85 H26        -19.3734     5.4775   -16.0835 H            1 RFP1200   0.0000
    86 H27        -19.9358     6.2389   -17.4142 H            1 RFP1200   0.0000
    87 H28        -18.9081     4.9792   -17.5674 H            1 RFP1200   0.0000
    88 H29        -14.9582     8.8833   -15.5334 H            1 RFP1200   0.0000
    89 H30        -16.4829     8.7857   -16.1099 H            1 RFP1200   0.0000
    90 H31        -16.1288     8.1871   -14.6325 H            1 RFP1200   0.0000
    91 H32        -11.6386     7.3943   -16.9276 H            1 RFP1200   0.0000
    92 H33        -12.5546     6.1002   -17.3184 H            1 RFP1200   0.0000
    93 H34        -13.2126     7.5948   -17.3135 H            1 RFP1200   0.0000
    94 H35        -15.7594     4.3174   -11.4995 H            1 RFP1200   0.0000
    95 H36        -14.7712     5.6110   -11.3702 H            1 RFP1200   0.0000
    96 H37        -16.3179     5.8103   -11.8546 H            1 RFP1200   0.0000
    97 H38        -11.8270     2.6437   -15.0594 H            1 RFP1200   0.0000
    98 H39        -10.7769     3.5761   -14.2260 H            1 RFP1200   0.0000
    99 H40        -12.3372     3.4814   -13.7537 H            1 RFP1200   0.0000
   100 H41        -10.2140    12.9661   -17.3078 H            1 RFP1200   0.0000
   101 H42         -9.9429    12.8208   -18.9116 H            1 RFP1200   0.0000
   102 H43         -9.5840    14.2179   -18.1460 H            1 RFP1200   0.0000
   103 H44        -12.3509    15.5376   -19.4783 H            1 RFP1200   0.0000
   104 H45        -11.0145    14.9062   -20.1727 H            1 RFP1200   0.0000
   105 H46        -12.2726    13.4656   -21.3458 H            1 RFP1200   0.0000
   106 H47        -13.6120    14.1650   -20.7266 H            1 RFP1200   0.0000
   107 H48        -14.5050    13.2956   -18.5102 H            1 RFP1200   0.0000
   108 H49        -13.8217    11.9507   -17.8848 H            1 RFP1200   0.0000
   109 H50        -12.3443    13.2025   -16.7241 H            1 RFP1200   0.0000
   110 H51        -13.1057    14.5462   -17.2547 H            1 RFP1200   0.0000
   111 H52        -13.9450    10.2962   -19.4886 H            1 RFP1200   0.0000
   112 H53        -14.6853     7.6987   -21.4785 H            1 RFP1200   0.0000
   113 H54        -13.6685     6.4563   -22.5168 H            1 RFP1200   0.0000
   114 H55        -11.7593     4.7577   -22.1575 H            1 RFP1200   0.0000
   115 H56        -16.7177     4.8401   -17.8301 H            1 RFP1200   0.0000
   116 H57        -16.6595     6.4527   -19.9734 H            1 RFP1200   0.0000
   117 H58         -9.7211     9.2860   -17.8303 H            1 RFP1200   0.0000
   118 H59        -11.3638    14.7995   -17.9816 H            1 RFP1200   0.0000
@<TRIPOS>BOND
     1    1    2      ar
     2    1    9      ar
     3    1   48       1
     4    2    3      ar
     5    2   44       1
     6    3    4      ar
     7    3   43       1
     8    4   10      ar
     9    4   59       1
    10    5    6      ar
    11    5   10      ar
    12    5   11       1
    13    6    7      ar
    14    6   50       1
    15    7    8      ar
    16    7   14       1
    17    8    9      ar
    18    8   49       1
    19    9   10      ar
    20   11   12       1
    21   11   51       2
    22   12   13       1
    23   12   50       1
    24   12   52       1
    25   15   16       1
    26   15   44      am
    27   15   58       2
    28   16   17       2
    29   16   30       1
    30   17   18       1
    31   18   19       2
    32   19   20       1
    33   20   21       1
    34   20   31       1
    35   21   22       1
    36   21   57       1
    37   22   23       1
    38   22   32       1
    39   23   24       1
    40   23   56       1
    41   24   25       1
    42   24   33       1
    43   25   26       1
    44   25   54       1
    45   26   27       1
    46   26   34       1
    47   27   28       1
    48   27   53       1
    49   28   29       2
    50   29   52       1
    51   35   36       1
    52   35   54       1
    53   35   55       2
    54   37   53       1
    55   38   47       1
    56   39   40       1
    57   39   47       1
    58   40   46       1
    59   41   42       1
    60   41   46       1
    61   42   47       1
    62   43   45       2
    63   45   46       1
    64   13   60       1
    65   13   61       1
    66   13   62       1
    67   14   63       1
    68   14   64       1
    69   14   65       1
    70   17   66       1
    71   18   67       1
    72   19   68       1
    73   20   69       1
    74   21   70       1
    75   22   71       1
    76   23   72       1
    77   24   73       1
    78   25   74       1
    79   26   75       1
    80   27   76       1
    81   28   77       1
    82   29   78       1
    83   30   79       1
    84   30   80       1
    85   30   81       1
    86   31   82       1
    87   31   83       1
    88   31   84       1
    89   32   85       1
    90   32   86       1
    91   32   87       1
    92   33   88       1
    93   33   89       1
    94   33   90       1
    95   34   91       1
    96   34   92       1
    97   34   93       1
    98   36   94       1
    99   36   95       1
   100   36   96       1
   101   37   97       1
   102   37   98       1
   103   37   99       1
   104   38  100       1
   105   38  101       1
   106   38  102       1
   107   39  103       1
   108   39  104       1
   109   40  105       1
   110   40  106       1
   111   41  107       1
   112   41  108       1
   113   42  109       1
   114   42  110       1
   115   43  111       1
   116   44  112       1
   117   48  113       1
   118   49  114       1
   119   56  115       1
   120   57  116       1
   121   59  117       1
   122   47  118       1
@<TRIPOS>SUBSTRUCTURE
     1 RFP1200     1 GROUP             4 A     RFP     0 **** RFP A1200
