@<TRIPOS>MOLECULE
3nyc_FAD_1_ligand
   84    89     1     0     0
SMALL
NO_CHARGES


@<TRIPOS>ATOM
     1 PA          -5.1140    16.3340    12.7660 P.3          1 FAD1500   0.0000
     2 O1A         -4.7310    14.9500    12.3690 O.co2        1 FAD1500   0.0000
     3 O2A         -4.3270    17.4440    12.1850 O.co2        1 FAD1500  -1.0000
     4 O5B         -6.6400    16.4500    12.3640 O.3          1 FAD1500   0.0000
     5 C5B         -7.3440    17.7310    12.4220 C.3          1 FAD1500   0.0000
     6 C4B         -8.2010    17.7430    11.1930 C.3          1 FAD1500   0.0000
     7 O4B         -9.0310    18.9410    11.2670 O.3          1 FAD1500   0.0000
     8 C3B         -7.3630    17.8570     9.9030 C.3          1 FAD1500   0.0000
     9 O3B         -7.5620    16.7460     9.0330 O.3          1 FAD1500   0.0000
    10 C2B         -7.8200    19.2070     9.3200 C.3          1 FAD1500   0.0000
    11 O2B         -7.8130    19.3050     7.8970 O.3          1 FAD1500   0.0000
    12 C1B         -9.2110    19.3640     9.9170 C.3          1 FAD1500   0.0000
    13 N9A         -9.7280    20.7260     9.9240 N.pl3        1 FAD1500   0.0000
    14 C8A         -9.0910    21.8650    10.3130 C.2          1 FAD1500   0.0000
    15 N7A         -9.8270    22.9520    10.1220 N.2          1 FAD1500   0.0000
    16 C5A        -11.0030    22.4850     9.5790 C.ar         1 FAD1500   0.0000
    17 C6A        -12.1690    23.1360     9.1100 C.ar         1 FAD1500   0.0000
    18 N6A        -12.3170    24.4860     9.0730 N.pl3        1 FAD1500   0.0000
    19 N1A        -13.1660    22.3400     8.6400 N.ar         1 FAD1500   0.0000
    20 C2A        -13.0300    21.0190     8.6220 C.ar         1 FAD1500   0.0000
    21 N3A        -11.9280    20.3060     8.9820 N.ar         1 FAD1500   0.0000
    22 C4A        -10.9500    21.1120     9.4550 C.ar         1 FAD1500   0.0000
    23 N1           1.4770    11.1230    18.5700 N.2          1 FAD1500   0.0000
    24 C2           1.5460     9.9670    19.2850 C.2          1 FAD1500   0.0000
    25 O2           0.5640     9.5670    19.9590 O.2          1 FAD1500   0.0000
    26 N3           2.6870     9.2080    19.2650 N.pl3        1 FAD1500   0.0000
    27 C4           3.8210     9.5630    18.5490 C.2          1 FAD1500   0.0000
    28 O4           4.8530     8.8170    18.6300 O.2          1 FAD1500   0.0000
    29 C4X          3.7980    10.7540    17.8450 C.2          1 FAD1500   0.0000
    30 N5           4.8990    11.1950    17.1840 N.2          1 FAD1500   0.0000
    31 C5X          4.7800    12.3620    16.4160 C.ar         1 FAD1500   0.0000
    32 C6           5.8550    12.7480    15.6080 C.ar         1 FAD1500   0.0000
    33 C7           5.7580    13.8300    14.7650 C.ar         1 FAD1500   0.0000
    34 C7M          6.8950    14.1810    13.8100 C.3          1 FAD1500   0.0000
    35 C8           4.5580    14.5660    14.7420 C.ar         1 FAD1500   0.0000
    36 C8M          4.3870    15.7220    13.7670 C.3          1 FAD1500   0.0000
    37 C9           3.5050    14.2200    15.5640 C.ar         1 FAD1500   0.0000
    38 C9A          3.5930    13.1030    16.4050 C.ar         1 FAD1500   0.0000
    39 N10          2.5250    12.7210    17.2450 N.pl3        1 FAD1500   0.0000
    40 C10          2.5880    11.4960    17.9060 C.2          1 FAD1500   0.0000
    41 C1'          1.3600    13.5960    17.5230 C.3          1 FAD1500   0.0000
    42 C2'          0.1460    13.2920    16.6380 C.3          1 FAD1500   0.0000
    43 O2'          0.5660    13.4690    15.2660 O.3          1 FAD1500   0.0000
    44 C3'         -0.9490    14.3300    16.9550 C.3          1 FAD1500   0.0000
    45 O3'         -1.1480    14.4310    18.3770 O.3          1 FAD1500   0.0000
    46 C4'         -2.3180    13.8940    16.3830 C.3          1 FAD1500   0.0000
    47 O4'         -2.1410    13.4790    15.0370 O.3          1 FAD1500   0.0000
    48 C5'         -3.2990    15.0410    16.4700 C.3          1 FAD1500   0.0000
    49 O5'         -4.5150    14.5800    15.8360 O.3          1 FAD1500   0.0000
    50 P           -5.6990    15.6240    15.5650 P.3          1 FAD1500   0.0000
    51 O1P         -6.8470    14.8310    15.0820 O.co2        1 FAD1500   0.0000
    52 O2P         -5.8420    16.5550    16.7280 O.co2        1 FAD1500  -1.0000
    53 O3P         -5.0870    16.5200    14.3730 O.3          1 FAD1500   0.0000
    54 H5B1        -6.6953    18.4919    12.4082 H            1 FAD1500   0.0000
    55 H5B2        -7.9072    17.7880    13.2464 H            1 FAD1500   0.0000
    56 H4B         -8.7750    16.9247    11.1625 H            1 FAD1500   0.0000
    57 H3B         -6.3944    17.9150    10.1449 H            1 FAD1500   0.0000
    58 H5          -8.5264    16.6942     8.7737 H            1 FAD1500   0.0000
    59 H2B         -7.2331    19.9271     9.6902 H            1 FAD1500   0.0000
    60 H7          -8.4249    18.6139     7.5123 H            1 FAD1500   0.0000
    61 H1B         -9.8540    18.7563     9.4509 H            1 FAD1500   0.0000
    62 H8A         -8.1692    21.8803    10.7003 H            1 FAD1500   0.0000
    63 H6A1       -13.1666    24.8866     8.7300 H            1 FAD1500   0.0000
    64 H6A2       -11.5763    25.0790     9.3888 H            1 FAD1500   0.0000
    65 H2A        -13.8212    20.4924     8.3110 H            1 FAD1500   0.0000
    66 H13          2.7029     8.3580    19.7915 H            1 FAD1500   0.0000
    67 H14          6.7085    12.2281    15.6442 H            1 FAD1500   0.0000
    68 H7M1         6.6470    14.9921    13.2803 H            1 FAD1500   0.0000
    69 H7M2         7.7257    14.3667    14.3348 H            1 FAD1500   0.0000
    70 H7M3         7.0575    13.4142    13.1890 H            1 FAD1500   0.0000
    71 H8M1         3.4813    16.1284    13.8874 H            1 FAD1500   0.0000
    72 H8M2         5.0884    16.4128    13.9427 H            1 FAD1500   0.0000
    73 H8M3         4.4789    15.3843    12.8302 H            1 FAD1500   0.0000
    74 H21          2.6711    14.7719    15.5593 H            1 FAD1500   0.0000
    75 H1'1         1.6334    14.5458    17.3709 H            1 FAD1500   0.0000
    76 H1'2         1.0936    13.4749    18.4792 H            1 FAD1500   0.0000
    77 H2'         -0.1866    12.3618    16.7935 H            1 FAD1500   0.0000
    78 H25         -0.2024    13.2788    14.6550 H            1 FAD1500   0.0000
    79 H3'         -0.6919    15.2217    16.5823 H            1 FAD1500   0.0000
    80 H27         -0.5396    15.1316    18.7498 H            1 FAD1500   0.0000
    81 H4'         -2.6661    13.1249    16.9190 H            1 FAD1500   0.0000
    82 H29         -3.0214    13.1947    14.6573 H            1 FAD1500   0.0000
    83 H5'1        -2.9399    15.8416    15.9904 H            1 FAD1500   0.0000
    84 H5'2        -3.4740    15.2759    17.4261 H            1 FAD1500   0.0000
@<TRIPOS>BOND
     1    1    2      ar
     2    1    3      ar
     3    1    4       1
     4    1   53       1
     5    4    5       1
     6    5    6       1
     7    6    7       1
     8    6    8       1
     9    7   12       1
    10    8    9       1
    11    8   10       1
    12   10   11       1
    13   10   12       1
    14   12   13       1
    15   13   14       1
    16   13   22       1
    17   14   15       2
    18   15   16       1
    19   16   17      ar
    20   16   22      ar
    21   17   18       1
    22   17   19      ar
    23   19   20      ar
    24   20   21      ar
    25   21   22      ar
    26   23   24       1
    27   23   40       2
    28   24   25       2
    29   24   26       1
    30   26   27       1
    31   27   28       2
    32   27   29       1
    33   29   30       2
    34   29   40       1
    35   30   31       1
    36   31   32      ar
    37   31   38      ar
    38   32   33      ar
    39   33   34       1
    40   33   35      ar
    41   35   36       1
    42   35   37      ar
    43   37   38      ar
    44   38   39       1
    45   39   40       1
    46   39   41       1
    47   41   42       1
    48   42   43       1
    49   42   44       1
    50   44   45       1
    51   44   46       1
    52   46   47       1
    53   46   48       1
    54   48   49       1
    55   49   50       1
    56   50   51      ar
    57   50   52      ar
    58   50   53       1
    59   48   84       1
    60    5   54       1
    61    5   55       1
    62    6   56       1
    63    8   57       1
    64    9   58       1
    65   10   59       1
    66   11   60       1
    67   12   61       1
    68   14   62       1
    69   18   63       1
    70   18   64       1
    71   20   65       1
    72   26   66       1
    73   32   67       1
    74   34   68       1
    75   34   69       1
    76   34   70       1
    77   36   71       1
    78   36   72       1
    79   36   73       1
    80   37   74       1
    81   41   75       1
    82   41   76       1
    83   42   77       1
    84   43   78       1
    85   44   79       1
    86   45   80       1
    87   46   81       1
    88   47   82       1
    89   48   83       1
@<TRIPOS>SUBSTRUCTURE
     1 FAD1500     1 GROUP             4 A     FAD     0 **** FAD A1500
