@<TRIPOS>MOLECULE
2v1x_ADP_1_ligand
   39    41     1     0     0
SMALL
NO_CHARGES


@<TRIPOS>ATOM
     1 PB          12.9990     2.6220    17.3900 P.3          1 ADP1593   0.0000
     2 O1B         11.5890     2.1140    17.1630 O.co2        1 ADP1593   0.0000
     3 O2B         13.5870     2.0550    18.6300 O.co2        1 ADP1593  -1.0000
     4 O3B         13.1780     4.1400    17.1570 O.co2        1 ADP1593  -1.0000
     5 PA          14.9350     0.9620    16.0110 P.3          1 ADP1593   0.0000
     6 O1A         16.1180     1.5010    16.7740 O.co2        1 ADP1593   0.0000
     7 O2A         14.4660    -0.3950    16.3020 O.co2        1 ADP1593  -1.0000
     8 O3A         13.7310     2.0230    16.1050 O.3          1 ADP1593   0.0000
     9 O5'         15.1950     1.0080    14.4370 O.3          1 ADP1593   0.0000
    10 C5'         14.2200     0.5890    13.4970 C.3          1 ADP1593   0.0000
    11 C4'         14.9070     0.1670    12.2160 C.3          1 ADP1593   0.0000
    12 O4'         15.6640     1.2410    11.6580 O.3          1 ADP1593   0.0000
    13 C3'         15.8770    -0.9820    12.4520 C.3          1 ADP1593   0.0000
    14 O3'         15.6500    -1.9890    11.4600 O.3          1 ADP1593   0.0000
    15 C2'         17.2460    -0.3350    12.3300 C.3          1 ADP1593   0.0000
    16 O2'         18.2380    -1.3020    11.9640 O.3          1 ADP1593   0.0000
    17 C1'         16.9570     0.7500    11.3040 C.3          1 ADP1593   0.0000
    18 N9          17.9030     1.8760    11.3150 N.pl3        1 ADP1593   0.0000
    19 C8          18.3400     2.5400    12.4020 C.2          1 ADP1593   0.0000
    20 N7          19.1940     3.5320    12.0510 N.2          1 ADP1593   0.0000
    21 C5          19.3070     3.4960    10.7180 C.ar         1 ADP1593   0.0000
    22 C6          20.0680     4.2480     9.7040 C.ar         1 ADP1593   0.0000
    23 N6          20.8650     5.2480    10.0870 N.pl3        1 ADP1593   0.0000
    24 N1          19.9150     3.9160     8.4020 N.ar         1 ADP1593   0.0000
    25 C2          19.1060     2.9080     8.0150 C.ar         1 ADP1593   0.0000
    26 N3          18.3940     2.1670     8.8910 N.ar         1 ADP1593   0.0000
    27 C4          18.4450     2.4140    10.2300 C.ar         1 ADP1593   0.0000
    28 H5'1        13.5935     1.3448    13.3065 H            1 ADP1593   0.0000
    29 H5'2        13.7065    -0.1835    13.8705 H            1 ADP1593   0.0000
    30 H4'         14.2146    -0.1217    11.5547 H            1 ADP1593   0.0000
    31 H3'         15.7514    -1.3614    13.3687 H            1 ADP1593   0.0000
    32 H5          14.9675    -2.6388    11.7947 H            1 ADP1593   0.0000
    33 H2'         17.4956     0.0868    13.2017 H            1 ADP1593   0.0000
    34 H7          19.1289    -0.8539    11.8898 H            1 ADP1593   0.0000
    35 H1'         16.9246     0.3473    10.3892 H            1 ADP1593   0.0000
    36 H9          18.0706     2.3294    13.3417 H            1 ADP1593   0.0000
    37 H10         21.3844     5.7627     9.4049 H            1 ADP1593   0.0000
    38 H11         20.9427     5.4824    11.0560 H            1 ADP1593   0.0000
    39 H12         19.0306     2.7012     7.0395 H            1 ADP1593   0.0000
@<TRIPOS>BOND
     1    1    2      ar
     2    1    3      ar
     3    1    4      ar
     4    1    8       1
     5    5    6      ar
     6    5    7      ar
     7    5    8       1
     8    5    9       1
     9    9   10       1
    10   10   11       1
    11   11   12       1
    12   11   13       1
    13   12   17       1
    14   13   14       1
    15   13   15       1
    16   15   16       1
    17   15   17       1
    18   17   18       1
    19   18   19       1
    20   18   27       1
    21   19   20       2
    22   20   21       1
    23   21   22      ar
    24   21   27      ar
    25   22   23       1
    26   22   24      ar
    27   24   25      ar
    28   25   26      ar
    29   26   27      ar
    30   25   39       1
    31   23   38       1
    32   23   37       1
    33   10   28       1
    34   10   29       1
    35   11   30       1
    36   13   31       1
    37   14   32       1
    38   15   33       1
    39   16   34       1
    40   17   35       1
    41   19   36       1
@<TRIPOS>SUBSTRUCTURE
     1 ADP1593     1 GROUP             4 A     ADP     0 **** ADP A1593
