@<TRIPOS>MOLECULE
4dld_TZG_1_ligand
   33    33     1     0     0
SMALL
NO_CHARGES


@<TRIPOS>ATOM
     1 N1           3.3020    35.1610   102.0110 N.2          1 TZG301   1.0000
     2 C4           0.3810    33.4090   103.2700 C.ar         1 TZG301   0.0000
     3 C5           1.7160    33.7160   103.0610 C.ar         1 TZG301   0.0000
     4 C6           2.0380    34.8030   102.2580 C.ar         1 TZG301   0.0000
     5 C7          -2.0590    33.7680   102.9980 C.3          1 TZG301   0.0000
     6 C8          -2.6130    34.6330   104.1570 C.3          1 TZG301   0.0000
     7 C10         -1.0050    37.6500   101.1960 C.3          1 TZG301   0.0000
     8 O4          -4.8960    34.6360   103.5290 O.co2        1 TZG301   0.0000
     9 C12         -4.0640    34.2360   104.3720 C.2          1 TZG301   0.0000
    10 O5          -4.2900    33.4930   105.3440 O.co2        1 TZG301  -1.0000
    11 N2          -1.8730    34.3300   105.3870 N.4          1 TZG301   1.0000
    12 C3          -0.6270    34.1780   102.6990 C.ar         1 TZG301   0.0000
    13 CL1          2.9310    32.7310   103.8120 Cl           1 TZG301   0.0000
    14 O1           3.5940    36.5220   101.7250 O.co2        1 TZG301   0.0000
    15 O2           4.3420    34.2130   101.9890 O.co2        1 TZG301  -1.0000
    16 C1           1.0330    35.5630   101.6850 C.ar         1 TZG301   0.0000
    17 C2          -0.3070    35.2710   101.9000 C.ar         1 TZG301   0.0000
    18 C9          -1.3600    36.1580   101.2080 C.3          1 TZG301   0.0000
    19 C11         -1.3510    38.2940   102.5460 C.2          1 TZG301   0.0000
    20 O7          -2.4750    38.0500   103.0290 O.co2        1 TZG301   0.0000
    21 O6          -0.4850    39.0230   103.0620 O.co2        1 TZG301  -1.0000
    22 H1           0.1391    32.6234   103.8395 H            1 TZG301   0.0000
    23 H2          -2.6217    33.9037   102.1825 H            1 TZG301   0.0000
    24 H3          -2.0814    32.8037   103.2617 H            1 TZG301   0.0000
    25 H4          -2.5434    35.6055   103.9348 H            1 TZG301   0.0000
    26 H5          -1.5220    38.1058   100.4715 H            1 TZG301   0.0000
    27 H6          -0.0257    37.7542   101.0227 H            1 TZG301   0.0000
    28 H7          -1.0824    34.9381   105.4588 H            1 TZG301   0.0000
    29 H8          -2.4705    34.4654   106.1774 H            1 TZG301   0.0000
    30 H9           1.2775    36.3391   101.1037 H            1 TZG301   0.0000
    31 H10         -1.4581    35.8501   100.2617 H            1 TZG301   0.0000
    32 H11         -2.2305    36.0453   101.6871 H            1 TZG301   0.0000
    33 H12         -1.5617    33.3800   105.3633 H            1 TZG301   0.0000
@<TRIPOS>BOND
     1    1    4       1
     2    1   14      ar
     3    1   15      ar
     4    2    3      ar
     5    2   12      ar
     6    3    4      ar
     7    3   13       1
     8    4   16      ar
     9    5    6       1
    10    5   12       1
    11    6    9       1
    12    6   11       1
    13    7   18       1
    14    7   19       1
    15    8    9      ar
    16    9   10      ar
    17   12   17      ar
    18   16   17      ar
    19   17   18       1
    20   19   20      ar
    21   19   21      ar
    22    2   22       1
    23    5   23       1
    24    5   24       1
    25    6   25       1
    26    7   26       1
    27    7   27       1
    28   11   33       1
    29   11   28       1
    30   11   29       1
    31   16   30       1
    32   18   31       1
    33   18   32       1
@<TRIPOS>SUBSTRUCTURE
     1 TZG301      1 GROUP             4 A     TZG     0 **** TZG A 301
