@<TRIPOS>MOLECULE
2i7n_ACO_1_ligand
   52    51     1     0     0
SMALL
NO_CHARGES


@<TRIPOS>ATOM
     1 O5B         -2.5440    26.2900    17.2640 O.co2        1 ACO796   0.0000
     2 P1A         -1.2330    27.1720    17.2680 P.3          1 ACO796   0.0000
     3 O1A         -0.1210    26.2780    16.9330 O.co2        1 ACO796  -1.0000
     4 O2A         -1.1770    27.9350    18.5930 O.co2        1 ACO796  -1.0000
     5 O3A         -1.5210    28.0770    15.9430 O.3          1 ACO796   0.0000
     6 P2A         -0.6070    29.2000    15.3320 P.3          1 ACO796   0.0000
     7 O4A         -0.3630    28.6790    13.9960 O.co2        1 ACO796   0.0000
     8 O5A          0.5790    29.3890    16.1970 O.co2        1 ACO796  -1.0000
     9 O6A         -1.4620    30.5130    15.2790 O.3          1 ACO796   0.0000
    10 CBP         -2.6000    31.4710    13.2920 C.3          1 ACO796   0.0000
    11 CCP         -2.7080    30.5550    14.4840 C.3          1 ACO796   0.0000
    12 CDP         -3.9800    31.3910    12.5390 C.3          1 ACO796   0.0000
    13 CEP         -2.3650    32.9270    13.7600 C.3          1 ACO796   0.0000
    14 CAP         -1.4110    30.9640    12.3480 C.3          1 ACO796   0.0000
    15 OAP         -1.6110    29.6180    11.9550 O.3          1 ACO796   0.0000
    16 C9P         -1.2320    31.8080    11.0550 C.2          1 ACO796   0.0000
    17 O9P         -0.8990    32.9930    11.0530 O.2          1 ACO796   0.0000
    18 N8P         -1.5030    31.1270     9.8980 N.am         1 ACO796   0.0000
    19 C7P         -1.4450    31.7140     8.5530 C.3          1 ACO796   0.0000
    20 C6P         -2.7670    32.4440     8.2290 C.3          1 ACO796   0.0000
    21 C5P         -2.7530    33.1100     6.8950 C.2          1 ACO796   0.0000
    22 O5P         -2.1220    34.1960     6.7060 O.2          1 ACO796   0.0000
    23 N4P         -3.4120    32.5460     5.9100 N.am         1 ACO796   0.0000
    24 C3P         -3.6180    32.9130     4.5100 C.3          1 ACO796   0.0000
    25 C2P         -3.3050    31.6530     3.6820 C.3          1 ACO796   0.0000
    26 S1P         -3.6380    32.1240     1.9010 S.3          1 ACO796   0.0000
    27 C           -5.1650    31.9160     1.8270 C.2          1 ACO796   0.0000
    28 O           -6.0280    31.5020     2.7580 O.2          1 ACO796   0.0000
    29 CH3         -6.1680    32.1630     0.5360 C.3          1 ACO796   0.0000
    30 HCP1        -3.4517    30.8770    15.0698 H            1 ACO796   0.0000
    31 HCP2        -2.9140    29.6312    14.1612 H            1 ACO796   0.0000
    32 HDP1        -3.9564    31.9860    11.7356 H            1 ACO796   0.0000
    33 HDP2        -4.1483    30.4483    12.2508 H            1 ACO796   0.0000
    34 HDP3        -4.7120    31.6878    13.1522 H            1 ACO796   0.0000
    35 HEP1        -2.2948    33.5262    12.9625 H            1 ACO796   0.0000
    36 HEP2        -3.1310    33.2211    14.3316 H            1 ACO796   0.0000
    37 HEP3        -1.5173    32.9746    14.2883 H            1 ACO796   0.0000
    38 HAP         -0.5592    31.0114    12.8697 H            1 ACO796   0.0000
    39 H10         -1.1805    29.0088    12.6210 H            1 ACO796   0.0000
    40 H8P         -1.7581    30.1631     9.9743 H            1 ACO796   0.0000
    41 H7P1        -1.2964    30.9874     7.8821 H            1 ACO796   0.0000
    42 H7P2        -0.6887    32.3668     8.5104 H            1 ACO796   0.0000
    43 H6P1        -2.9276    33.1386     8.9303 H            1 ACO796   0.0000
    44 H6P2        -3.5115    31.7766     8.2442 H            1 ACO796   0.0000
    45 H4P         -3.8646    31.6929     6.1696 H            1 ACO796   0.0000
    46 H3P1        -3.0022    33.6579     4.2531 H            1 ACO796   0.0000
    47 H3P2        -4.5652    33.1977     4.3625 H            1 ACO796   0.0000
    48 H2P1        -3.8977    30.8969     3.9596 H            1 ACO796   0.0000
    49 H2P2        -2.3482    31.3870     3.7995 H            1 ACO796   0.0000
    50 HH31        -7.1075    31.9405     0.7965 H            1 ACO796   0.0000
    51 HH32        -6.1183    33.1211     0.2538 H            1 ACO796   0.0000
    52 HH33        -5.8848    31.5768    -0.2231 H            1 ACO796   0.0000
@<TRIPOS>BOND
     1    1    2      ar
     2    2    3      ar
     3    2    4      ar
     4    2    5       1
     5    5    6       1
     6    6    7      ar
     7    6    8      ar
     8    6    9       1
     9    9   11       1
    10   10   11       1
    11   10   12       1
    12   10   13       1
    13   10   14       1
    14   14   15       1
    15   14   16       1
    16   16   17       2
    17   16   18      am
    18   18   19       1
    19   19   20       1
    20   20   21       1
    21   21   22       2
    22   21   23      am
    23   23   24       1
    24   24   25       1
    25   25   26       1
    26   26   27       1
    27   27   28       2
    28   27   29       1
    29   29   52       1
    30   29   51       1
    31   29   50       1
    32   11   30       1
    33   11   31       1
    34   12   32       1
    35   12   33       1
    36   12   34       1
    37   13   35       1
    38   13   36       1
    39   13   37       1
    40   14   38       1
    41   15   39       1
    42   18   40       1
    43   19   41       1
    44   19   42       1
    45   20   43       1
    46   20   44       1
    47   23   45       1
    48   24   46       1
    49   24   47       1
    50   25   48       1
    51   25   49       1
@<TRIPOS>SUBSTRUCTURE
     1 ACO796      1 GROUP             4 A     ACO     0 **** ACO A 796
