@<TRIPOS>MOLECULE
3bts_NAD_2_ligand
   70    74     1     0     0
SMALL
NO_CHARGES


@<TRIPOS>ATOM
     1 PA          27.2560    16.9610    33.6980 P.3          1 NAD436   0.0000
     2 O1A         26.2820    17.9690    33.2260 O.co2        1 NAD436   0.0000
     3 O2A         28.5380    17.5650    34.1250 O.co2        1 NAD436  -1.0000
     4 O5B         27.5270    15.8790    32.5500 O.3          1 NAD436   0.0000
     5 C5B         26.4190    15.3260    31.8960 C.3          1 NAD436   0.0000
     6 C4B         26.5810    15.4500    30.3900 C.3          1 NAD436   0.0000
     7 O4B         25.3040    15.7820    29.8780 O.3          1 NAD436   0.0000
     8 C3B         27.5220    16.5770    29.9620 C.3          1 NAD436   0.0000
     9 O3B         28.7670    16.0990    29.5120 O.3          1 NAD436   0.0000
    10 C2B         26.8260    17.2430    28.8080 C.3          1 NAD436   0.0000
    11 O2B         27.3200    16.6580    27.6350 O.3          1 NAD436   0.0000
    12 C1B         25.3820    16.8210    28.9160 C.3          1 NAD436   0.0000
    13 N9A         24.5790    17.9860    29.3310 N.pl3        1 NAD436   0.0000
    14 C8A         24.9690    18.9750    30.1950 C.2          1 NAD436   0.0000
    15 N7A         23.9550    19.8620    30.3170 N.2          1 NAD436   0.0000
    16 C5A         22.9240    19.4560    29.5430 C.ar         1 NAD436   0.0000
    17 C6A         21.6600    19.9880    29.3000 C.ar         1 NAD436   0.0000
    18 N6A         21.3290    21.1930    29.7520 N.pl3        1 NAD436   0.0000
    19 N1A         20.8050    19.3350    28.4390 N.ar         1 NAD436   0.0000
    20 C2A         21.2090    18.1620    27.8320 C.ar         1 NAD436   0.0000
    21 N3A         22.4600    17.6370    28.0770 N.ar         1 NAD436   0.0000
    22 C4A         23.3050    18.2760    28.9190 C.ar         1 NAD436   0.0000
    23 O3          26.5370    16.1460    34.8880 O.3          1 NAD436   0.0000
    24 PN          27.3310    15.1820    35.9040 P.3          1 NAD436   0.0000
    25 O1N         28.2450    15.9800    36.7470 O.co2        1 NAD436   0.0000
    26 O2N         27.8300    14.0260    35.1420 O.co2        1 NAD436  -1.0000
    27 O5D         26.1310    14.6770    36.8310 O.3          1 NAD436   0.0000
    28 C5D         25.0090    14.0720    36.2480 C.3          1 NAD436   0.0000
    29 C4D         23.9800    13.7880    37.3330 C.3          1 NAD436   0.0000
    30 O4D         24.4410    12.7380    38.1580 O.3          1 NAD436   0.0000
    31 C3D         23.7720    14.9910    38.2370 C.3          1 NAD436   0.0000
    32 O3D         22.4120    15.0340    38.5760 O.3          1 NAD436   0.0000
    33 C2D         24.5440    14.6630    39.4880 C.3          1 NAD436   0.0000
    34 O2D         23.9490    15.2520    40.6180 O.3          1 NAD436   0.0000
    35 C1D         24.3810    13.1570    39.5070 C.3          1 NAD436   0.0000
    36 N1N         25.3920    12.5060    40.3450 N.ar         1 NAD436   1.0000
    37 C2N         24.9660    11.5430    41.1910 C.ar         1 NAD436   0.0000
    38 C3N         25.8490    10.8900    42.0260 C.ar         1 NAD436   0.0000
    39 C7N         25.3090     9.8760    42.9920 C.2          1 NAD436   0.0000
    40 O7N         26.1000     9.4680    44.0830 O.2          1 NAD436   0.0000
    41 N7N         24.0870     9.3860    42.7820 N.am         1 NAD436   0.0000
    42 C4N         27.1960    11.2270    41.9850 C.ar         1 NAD436   0.0000
    43 C5N         27.6190    12.2160    41.1070 C.ar         1 NAD436   0.0000
    44 C6N         26.7040    12.8580    40.2870 C.ar         1 NAD436   0.0000
    45 H5B1        25.5920    15.8111    32.1801 H            1 NAD436   0.0000
    46 H5B2        26.3394    14.3597    32.1410 H            1 NAD436   0.0000
    47 H4B         26.8897    14.5802    30.0051 H            1 NAD436   0.0000
    48 H3B         27.6498    17.2262    30.7118 H            1 NAD436   0.0000
    49 H5          29.2133    15.5881    30.2467 H            1 NAD436   0.0000
    50 H2B         26.9362    18.2369    28.8162 H            1 NAD436   0.0000
    51 H7          27.2944    17.3272    26.8924 H            1 NAD436   0.0000
    52 H1B         25.0602    16.4866    28.0302 H            1 NAD436   0.0000
    53 H8A         25.8539    19.0316    30.6574 H            1 NAD436   0.0000
    54 H6A1        20.4177    21.5624    29.5700 H            1 NAD436   0.0000
    55 H6A2        21.9912    21.7304    30.2742 H            1 NAD436   0.0000
    56 H2A         20.5874    17.6884    27.2081 H            1 NAD436   0.0000
    57 H5D1        25.2798    13.2148    35.8100 H            1 NAD436   0.0000
    58 H5D2        24.6145    14.6857    35.5640 H            1 NAD436   0.0000
    59 H4D         23.1105    13.5287    36.9126 H            1 NAD436   0.0000
    60 H3D         24.0831    15.8413    37.8126 H            1 NAD436   0.0000
    61 H17         21.9175    15.5821    37.9014 H            1 NAD436   0.0000
    62 H2D         25.5053    14.9252    39.4031 H            1 NAD436   0.0000
    63 H19         23.2798    14.6205    41.0096 H            1 NAD436   0.0000
    64 H1D         23.4753    12.9379    39.8700 H            1 NAD436   0.0000
    65 H2N         23.9963    11.2998    41.2124 H            1 NAD436   0.0000
    66 H7N1        23.7047     8.7093    43.4112 H            1 NAD436   0.0000
    67 H7N2        23.5527     9.6952    41.9953 H            1 NAD436   0.0000
    68 H4N         27.8525    10.7634    42.5801 H            1 NAD436   0.0000
    69 H5N         28.5864    12.4659    41.0661 H            1 NAD436   0.0000
    70 H6N         27.0065    13.5741    39.6580 H            1 NAD436   0.0000
@<TRIPOS>BOND
     1    1    2      ar
     2    1    3      ar
     3    1    4       1
     4    1   23       1
     5    4    5       1
     6    5    6       1
     7    6    7       1
     8    6    8       1
     9    7   12       1
    10    8    9       1
    11    8   10       1
    12   10   11       1
    13   10   12       1
    14   12   13       1
    15   13   14       1
    16   13   22       1
    17   14   15       2
    18   15   16       1
    19   16   17      ar
    20   16   22      ar
    21   17   18       1
    22   17   19      ar
    23   19   20      ar
    24   20   21      ar
    25   21   22      ar
    26   23   24       1
    27   24   25      ar
    28   24   26      ar
    29   24   27       1
    30   27   28       1
    31   28   29       1
    32   29   30       1
    33   29   31       1
    34   30   35       1
    35   31   32       1
    36   31   33       1
    37   33   34       1
    38   33   35       1
    39   35   36       1
    40   36   37      ar
    41   36   44      ar
    42   37   38      ar
    43   38   39       1
    44   38   42      ar
    45   39   40       2
    46   39   41      am
    47   42   43      ar
    48   43   44      ar
    49   44   70       1
    50    5   45       1
    51    5   46       1
    52    6   47       1
    53    8   48       1
    54    9   49       1
    55   10   50       1
    56   11   51       1
    57   12   52       1
    58   14   53       1
    59   18   54       1
    60   18   55       1
    61   20   56       1
    62   43   69       1
    63   28   57       1
    64   28   58       1
    65   29   59       1
    66   31   60       1
    67   32   61       1
    68   33   62       1
    69   34   63       1
    70   35   64       1
    71   37   65       1
    72   41   66       1
    73   41   67       1
    74   42   68       1
@<TRIPOS>SUBSTRUCTURE
     1 NAD436      1 GROUP             4 A     NAD     0 **** NAD A 436
