@<TRIPOS>MOLECULE
2a41_ATP_1_ligand
   43    45     1     0     0
SMALL
NO_CHARGES


@<TRIPOS>ATOM
     1 PG          -3.1930    19.1970    69.9540 P.3          1 ATP1380   0.0000
     2 O1G         -2.2600    19.9690    69.0410 O.co2        1 ATP1380   0.0000
     3 O2G         -4.6200    19.1310    69.4430 O.co2        1 ATP1380  -1.0000
     4 O3G         -2.5480    17.9110    70.3910 O.co2        1 ATP1380  -1.0000
     5 PB          -4.4830    20.5220    72.2100 P.3          1 ATP1380   0.0000
     6 O1B         -5.5310    19.4340    72.2180 O.co2        1 ATP1380   0.0000
     7 O2B         -3.8870    20.9660    73.5240 O.co2        1 ATP1380  -1.0000
     8 O3B         -3.1890    20.0460    71.3500 O.3          1 ATP1380   0.0000
     9 PA          -6.2840    22.7670    71.7550 P.3          1 ATP1380   0.0000
    10 O1A         -7.4040    22.6880    70.7380 O.co2        1 ATP1380   0.0000
    11 O2A         -6.5740    22.7230    73.2220 O.co2        1 ATP1380  -1.0000
    12 O3A         -5.0330    21.7900    71.3630 O.3          1 ATP1380   0.0000
    13 O5'         -5.6620    24.2280    71.4760 O.3          1 ATP1380   0.0000
    14 C5'         -4.6940    24.8510    72.3120 C.3          1 ATP1380   0.0000
    15 C4'         -4.1180    25.9760    71.4730 C.3          1 ATP1380   0.0000
    16 O4'         -5.2230    26.7420    70.9830 O.3          1 ATP1380   0.0000
    17 C3'         -3.2100    26.9390    72.2330 C.3          1 ATP1380   0.0000
    18 O3'         -2.0140    27.1590    71.4810 O.3          1 ATP1380   0.0000
    19 C2'         -4.0090    28.2230    72.3060 C.3          1 ATP1380   0.0000
    20 O2'         -3.2440    29.4400    72.3500 O.3          1 ATP1380   0.0000
    21 C1'         -4.8740    28.1220    71.0670 C.3          1 ATP1380   0.0000
    22 N9          -6.0670    28.9470    71.2820 N.pl3        1 ATP1380   0.0000
    23 C8          -6.9110    28.8700    72.3270 C.2          1 ATP1380   0.0000
    24 N7          -7.8780    29.8170    72.2150 N.2          1 ATP1380   0.0000
    25 C5          -7.6460    30.4930    71.0650 C.ar         1 ATP1380   0.0000
    26 C6          -8.2730    31.6050    70.3140 C.ar         1 ATP1380   0.0000
    27 N6          -9.3900    32.2250    70.7480 N.pl3        1 ATP1380   0.0000
    28 N1          -7.6820    31.9960    69.1730 N.ar         1 ATP1380   0.0000
    29 C2          -6.5760    31.4070    68.7170 C.ar         1 ATP1380   0.0000
    30 N3          -5.9660    30.4010    69.3330 N.ar         1 ATP1380   0.0000
    31 C4          -6.4450    29.9120    70.4750 C.ar         1 ATP1380   0.0000
    32 H5'1        -3.9785    24.2005    72.5667 H            1 ATP1380   0.0000
    33 H5'2        -5.1244    25.2136    73.1386 H            1 ATP1380   0.0000
    34 H4'         -3.6157    25.5883    70.7001 H            1 ATP1380   0.0000
    35 H3'         -3.0018    26.5919    73.1474 H            1 ATP1380   0.0000
    36 H5          -1.3268    26.4810    71.7418 H            1 ATP1380   0.0000
    37 H2'         -4.5995    28.1870    73.1122 H            1 ATP1380   0.0000
    38 H7          -3.7502    30.1335    72.8626 H            1 ATP1380   0.0000
    39 H1'         -4.3736    28.4173    70.2531 H            1 ATP1380   0.0000
    40 H9          -6.8371    28.2119    73.0763 H            1 ATP1380   0.0000
    41 H10         -9.7861    32.9726    70.2149 H            1 ATP1380   0.0000
    42 H11         -9.8217    31.9369    71.6028 H            1 ATP1380   0.0000
    43 H12         -6.1828    31.7425    67.8609 H            1 ATP1380   0.0000
@<TRIPOS>BOND
     1    1    2      ar
     2    1    3      ar
     3    1    4      ar
     4    1    8       1
     5    5    6      ar
     6    5    7      ar
     7    5    8       1
     8    5   12       1
     9    9   10      ar
    10    9   11      ar
    11    9   12       1
    12    9   13       1
    13   13   14       1
    14   14   15       1
    15   15   16       1
    16   15   17       1
    17   16   21       1
    18   17   18       1
    19   17   19       1
    20   19   20       1
    21   19   21       1
    22   21   22       1
    23   22   23       1
    24   22   31       1
    25   23   24       2
    26   24   25       1
    27   25   26      ar
    28   25   31      ar
    29   26   27       1
    30   26   28      ar
    31   28   29      ar
    32   29   30      ar
    33   30   31      ar
    34   29   43       1
    35   27   42       1
    36   27   41       1
    37   23   40       1
    38   14   32       1
    39   14   33       1
    40   15   34       1
    41   17   35       1
    42   18   36       1
    43   19   37       1
    44   20   38       1
    45   21   39       1
@<TRIPOS>SUBSTRUCTURE
     1 ATP1380     1 GROUP             4 A     ATP     0 **** ATP A1380
