@<TRIPOS>MOLECULE
5eqb_1YN_1_ligand
   87    93     1     0     0
SMALL
NO_CHARGES


@<TRIPOS>ATOM
     1 C12          9.8190    13.3560    20.0100 C.ar         1 1YN602   0.0000
     2 C11          8.9650    12.3240    20.3630 C.ar         1 1YN602   0.0000
     3 C01          4.4660    15.1170    17.7180 C.3          1 1YN602   0.0000
     4 C02          3.6460    14.4700    18.8310 C.3          1 1YN602   0.0000
     5 C03          4.4330    14.4680    20.1630 C.3          1 1YN602   0.0000
     6 C04          3.5110    14.2280    21.3530 C.3          1 1YN602   0.0000
     7 N05          5.5760    13.4720    20.2220 N.pl3        1 1YN602   0.0000
     8 C06          6.8970    13.7740    20.2970 C.2          1 1YN602   0.0000
     9 O07          7.4250    14.8740    20.3050 O.2          1 1YN602   0.0000
    10 N08          7.5300    12.5330    20.4040 N.pl3        1 1YN602   0.0000
    11 C09          6.5760    11.5430    20.4000 C.2          1 1YN602   0.0000
    12 N10          5.3760    12.1170    20.2760 N.2          1 1YN602   0.0000
    13 C13         11.1900    13.1600    20.0100 C.ar         1 1YN602   0.0000
    14 C14         11.7390    11.9170    20.3490 C.ar         1 1YN602   0.0000
    15 C15         10.8880    10.9130    20.7590 C.ar         1 1YN602   0.0000
    16 C16          9.5160    11.1050    20.7560 C.ar         1 1YN602   0.0000
    17 N17         13.0830    11.6470    20.1370 N.pl3        1 1YN602   0.0000
    18 C18         13.6750    10.3810    20.5550 C.3          1 1YN602   0.0000
    19 C19         14.8030    10.0250    19.5890 C.3          1 1YN602   0.0000
    20 N20         15.8280    11.0720    19.5230 N.pl3        1 1YN602   0.0000
    21 C21         15.2710    12.4100    19.3230 C.3          1 1YN602   0.0000
    22 C22         14.1110    12.6820    20.2420 C.3          1 1YN602   0.0000
    23 C23         17.0140    10.7720    18.7920 C.ar         1 1YN602   0.0000
    24 C24         17.5840    11.7090    17.9500 C.ar         1 1YN602   0.0000
    25 C25         18.7790    11.4580    17.2950 C.ar         1 1YN602   0.0000
    26 C26         19.4260    10.2410    17.4660 C.ar         1 1YN602   0.0000
    27 C27         18.8570     9.2750    18.2990 C.ar         1 1YN602   0.0000
    28 C28         17.6570     9.5390    18.9460 C.ar         1 1YN602   0.0000
    29 O29         20.6450    10.0660    16.8210 O.3          1 1YN602   0.0000
    30 C30         21.3620     8.8350    16.9930 C.3          1 1YN602   0.0000
    31 C31         22.4210     8.7180    15.9340 C.3          1 1YN602   0.0000
    32 C32         21.9380     9.3100    14.6440 C.3          1 1YN602   0.0000
    33 O33         22.2670    10.6790    14.7550 O.3          1 1YN602   0.0000
    34 C34         23.4830    10.7560    15.4840 C.3          1 1YN602   0.0000
    35 O35         23.5110     9.5810    16.3220 O.3          1 1YN602   0.0000
    36 C36         23.4070    11.9300    16.5240 C.3          1 1YN602   0.0000
    37 N37         24.7550    12.2870    16.9380 N.pl3        1 1YN602   0.0000
    38 C38         25.6650    11.5480    17.5510 C.2          1 1YN602   0.0000
    39 N39         26.7590    12.2480    17.7700 N.2          1 1YN602   0.0000
    40 C40         26.4590    13.4410    17.2480 C.2          1 1YN602   0.0000
    41 N41         25.2510    13.5390    16.7350 N.2          1 1YN602   0.0000
    42 C42         24.5530    10.8670    14.4060 C.ar         1 1YN602   0.0000
    43 C43         24.6790    11.9930    13.5820 C.ar         1 1YN602   0.0000
    44 C44         25.7010    12.0890    12.6470 C.ar         1 1YN602   0.0000
    45 C45         26.5920    11.0340    12.5230 C.ar         1 1YN602   0.0000
    46 C46         26.4730     9.9010    13.2920 C.ar         1 1YN602   0.0000
    47 C47         25.4610     9.8340    14.2290 C.ar         1 1YN602   0.0000
    48 CL8         27.8960    11.1390    11.3720 Cl           1 1YN602   0.0000
    49 CL9         23.5470    13.3010    13.6780 Cl           1 1YN602   0.0000
    50 H1           9.4437    14.2468    19.7539 H            1 1YN602   0.0000
    51 H2           3.9397    15.1078    16.8678 H            1 1YN602   0.0000
    52 H3           4.6799    16.0615    17.9675 H            1 1YN602   0.0000
    53 H4           5.3157    14.6056    17.5896 H            1 1YN602   0.0000
    54 H5           3.4322    13.5272    18.5751 H            1 1YN602   0.0000
    55 H6           2.7964    14.9831    18.9529 H            1 1YN602   0.0000
    56 H7           4.8287    15.3796    20.2743 H            1 1YN602   0.0000
    57 H8           4.0477    14.2323    22.1967 H            1 1YN602   0.0000
    58 H9           2.8222    14.9519    21.3924 H            1 1YN602   0.0000
    59 H10          3.0582    13.3423    21.2505 H            1 1YN602   0.0000
    60 H11          6.7505    10.5613    20.4768 H            1 1YN602   0.0000
    61 H12         11.7963    13.9164    19.7646 H            1 1YN602   0.0000
    62 H13         11.2647    10.0375    21.0616 H            1 1YN602   0.0000
    63 H14          8.9129    10.3594    21.0395 H            1 1YN602   0.0000
    64 H15         12.9793     9.6628    20.5392 H            1 1YN602   0.0000
    65 H16         14.0410    10.4703    21.4813 H            1 1YN602   0.0000
    66 H17         14.4161     9.8953    18.6761 H            1 1YN602   0.0000
    67 H18         15.2311     9.1741    19.8936 H            1 1YN602   0.0000
    68 H19         14.9588    12.4914    18.3765 H            1 1YN602   0.0000
    69 H20         15.9863    13.0867    19.4973 H            1 1YN602   0.0000
    70 H21         14.4445    12.7131    21.1842 H            1 1YN602   0.0000
    71 H22         13.7075    13.5649    20.0019 H            1 1YN602   0.0000
    72 H23         17.1243    12.5861    17.8108 H            1 1YN602   0.0000
    73 H24         19.1765    12.1547    16.6978 H            1 1YN602   0.0000
    74 H25         19.3131     8.3946    18.4293 H            1 1YN602   0.0000
    75 H26         17.2469     8.8384    19.5299 H            1 1YN602   0.0000
    76 H27         20.7272     8.0662    16.9155 H            1 1YN602   0.0000
    77 H28         21.7913     8.8231    17.8961 H            1 1YN602   0.0000
    78 H29         22.7228     7.7719    15.8162 H            1 1YN602   0.0000
    79 H30         20.9505     9.1883    14.5443 H            1 1YN602   0.0000
    80 H31         22.4056     8.8937    13.8642 H            1 1YN602   0.0000
    81 H32         22.8783    11.6377    17.3209 H            1 1YN602   0.0000
    82 H33         22.9651    12.7222    16.1031 H            1 1YN602   0.0000
    83 H34         25.5397    10.5908    17.8119 H            1 1YN602   0.0000
    84 H35         27.1055    14.2039    17.2472 H            1 1YN602   0.0000
    85 H36         25.7926    12.9034    12.0740 H            1 1YN602   0.0000
    86 H37         27.1087     9.1380    13.1749 H            1 1YN602   0.0000
    87 H38         25.3804     9.0153    14.7975 H            1 1YN602   0.0000
@<TRIPOS>BOND
     1    1    2      ar
     2    1   13      ar
     3    2   10       1
     4    2   16      ar
     5    3    4       1
     6    4    5       1
     7    5    6       1
     8    5    7       1
     9    7    8       1
    10    7   12       1
    11    8    9       2
    12    8   10       1
    13   10   11       1
    14   11   12       2
    15   13   14      ar
    16   14   15      ar
    17   14   17       1
    18   15   16      ar
    19   17   18       1
    20   17   22       1
    21   18   19       1
    22   19   20       1
    23   20   21       1
    24   20   23       1
    25   21   22       1
    26   23   24      ar
    27   23   28      ar
    28   24   25      ar
    29   25   26      ar
    30   26   27      ar
    31   26   29       1
    32   27   28      ar
    33   29   30       1
    34   30   31       1
    35   31   32       1
    36   31   35       1
    37   32   33       1
    38   33   34       1
    39   34   35       1
    40   34   36       1
    41   34   42       1
    42   36   37       1
    43   37   38       1
    44   37   41       1
    45   38   39       2
    46   39   40       1
    47   40   41       2
    48   42   43      ar
    49   42   47      ar
    50   43   44      ar
    51   43   49       1
    52   44   45      ar
    53   45   46      ar
    54   45   48       1
    55   46   47      ar
    56    1   50       1
    57    3   51       1
    58    3   52       1
    59    3   53       1
    60    4   54       1
    61    4   55       1
    62    5   56       1
    63    6   57       1
    64    6   58       1
    65    6   59       1
    66   11   60       1
    67   13   61       1
    68   15   62       1
    69   16   63       1
    70   18   64       1
    71   18   65       1
    72   19   66       1
    73   19   67       1
    74   21   68       1
    75   21   69       1
    76   22   70       1
    77   22   71       1
    78   24   72       1
    79   25   73       1
    80   27   74       1
    81   28   75       1
    82   30   76       1
    83   30   77       1
    84   31   78       1
    85   32   79       1
    86   32   80       1
    87   36   81       1
    88   36   82       1
    89   38   83       1
    90   40   84       1
    91   44   85       1
    92   46   86       1
    93   47   87       1
@<TRIPOS>SUBSTRUCTURE
     1 1YN602      1 GROUP             4 A     1YN     0 **** 1YN A 602
