@<TRIPOS>MOLECULE
3oix_FMN_1_ligand
   50    52     1     0     0
SMALL
NO_CHARGES


@<TRIPOS>ATOM
     1 N1          14.0750   -25.6590    27.9070 N.2          1 FMN400   0.0000
     2 C2          12.7630   -26.0210    27.6920 C.2          1 FMN400   0.0000
     3 O2          11.9420   -26.0100    28.6060 O.2          1 FMN400   0.0000
     4 N3          12.3630   -26.4070    26.4370 N.pl3        1 FMN400   0.0000
     5 C4          13.2540   -26.4320    25.3800 C.2          1 FMN400   0.0000
     6 O4          12.8430   -26.7750    24.2790 O.2          1 FMN400   0.0000
     7 C4A         14.5830   -26.0800    25.5720 C.2          1 FMN400   0.0000
     8 N5          15.5340   -26.1070    24.5560 N.2          1 FMN400   0.0000
     9 C5A         16.8560   -25.7670    24.8270 C.ar         1 FMN400   0.0000
    10 C6          17.8290   -25.7900    23.8450 C.ar         1 FMN400   0.0000
    11 C7          19.1440   -25.4380    24.1330 C.ar         1 FMN400   0.0000
    12 C7M         20.1590   -25.4720    23.0310 C.3          1 FMN400   0.0000
    13 C8          19.5120   -25.0530    25.4130 C.ar         1 FMN400   0.0000
    14 C8M         20.9300   -24.6670    25.7420 C.3          1 FMN400   0.0000
    15 C9          18.5380   -25.0230    26.4020 C.ar         1 FMN400   0.0000
    16 C9A         17.2200   -25.3810    26.1110 C.ar         1 FMN400   0.0000
    17 N10         16.2490   -25.3530    27.0860 N.pl3        1 FMN400   0.0000
    18 C10         14.9620   -25.7070    26.8490 C.2          1 FMN400   0.0000
    19 C1'         16.5280   -24.9370    28.4680 C.3          1 FMN400   0.0000
    20 C2'         17.4450   -25.8970    29.1300 C.3          1 FMN400   0.0000
    21 O2'         16.5500   -26.6640    29.8770 O.3          1 FMN400   0.0000
    22 C3'         18.2550   -24.8720    29.8850 C.3          1 FMN400   0.0000
    23 O3'         19.6210   -24.7580    29.5340 O.3          1 FMN400   0.0000
    24 C4'         18.1690   -25.2180    31.3110 C.3          1 FMN400   0.0000
    25 O4'         16.8120   -24.9370    31.6450 O.3          1 FMN400   0.0000
    26 C5'         19.3060   -24.3820    31.9020 C.3          1 FMN400   0.0000
    27 O5'         20.2580   -25.3250    32.3480 O.3          1 FMN400   0.0000
    28 P           21.8380   -25.3590    31.9860 P.3          1 FMN400   0.0000
    29 O1P         22.4880   -24.2140    32.6810 O.co2        1 FMN400   0.0000
    30 O2P         22.0490   -25.2760    30.4970 O.co2        1 FMN400  -1.0000
    31 O3P         22.3670   -26.6720    32.4920 O.co2        1 FMN400  -1.0000
    32 H1          11.4116   -26.6745    26.2846 H            1 FMN400   0.0000
    33 H2          17.5843   -26.0634    22.9148 H            1 FMN400   0.0000
    34 H7M1        21.0504   -25.1955    23.3902 H            1 FMN400   0.0000
    35 H7M2        20.2210   -26.3999    22.6634 H            1 FMN400   0.0000
    36 H7M3        19.8830   -24.8432    22.3041 H            1 FMN400   0.0000
    37 H8M1        20.9930   -24.4226    26.7096 H            1 FMN400   0.0000
    38 H8M2        21.5379   -25.4382    25.5527 H            1 FMN400   0.0000
    39 H8M3        21.2007   -23.8839    25.1821 H            1 FMN400   0.0000
    40 H9          18.7823   -24.7427    27.3303 H            1 FMN400   0.0000
    41 H1'1        15.6691   -24.8980    28.9787 H            1 FMN400   0.0000
    42 H1'2        16.9518   -24.0313    28.4589 H            1 FMN400   0.0000
    43 H2'         17.9879   -26.4358    28.4859 H            1 FMN400   0.0000
    44 H13         16.2389   -27.4408    29.3294 H            1 FMN400   0.0000
    45 H3'         17.8249   -23.9786    29.7552 H            1 FMN400   0.0000
    46 H15         20.1631   -25.3813    30.0976 H            1 FMN400   0.0000
    47 H4'         18.3582   -26.1916    31.4388 H            1 FMN400   0.0000
    48 H17         16.7543   -24.6669    32.6061 H            1 FMN400   0.0000
    49 H5'1        18.9749   -23.8283    32.6660 H            1 FMN400   0.0000
    50 H5'2        19.7025   -23.7848    31.2048 H            1 FMN400   0.0000
@<TRIPOS>BOND
     1    1    2       1
     2    1   18       2
     3    2    3       2
     4    2    4       1
     5    4    5       1
     6    5    6       2
     7    5    7       1
     8    7    8       2
     9    7   18       1
    10    8    9       1
    11    9   10      ar
    12    9   16      ar
    13   10   11      ar
    14   11   12       1
    15   11   13      ar
    16   13   14       1
    17   13   15      ar
    18   15   16      ar
    19   16   17       1
    20   17   18       1
    21   17   19       1
    22   19   20       1
    23   20   21       1
    24   20   22       1
    25   22   23       1
    26   22   24       1
    27   24   25       1
    28   24   26       1
    29   26   27       1
    30   27   28       1
    31   28   29      ar
    32   28   30      ar
    33   28   31      ar
    34    4   32       1
    35   10   33       1
    36   12   34       1
    37   12   35       1
    38   12   36       1
    39   14   37       1
    40   14   38       1
    41   14   39       1
    42   15   40       1
    43   19   41       1
    44   19   42       1
    45   20   43       1
    46   21   44       1
    47   22   45       1
    48   23   46       1
    49   24   47       1
    50   25   48       1
    51   26   49       1
    52   26   50       1
@<TRIPOS>SUBSTRUCTURE
     1 FMN400      1 GROUP             4 A     FMN     0 **** FMN A 400
