@<TRIPOS>MOLECULE
1xrp_PRO_LEU_GLY_GLY_1_ligand
   50    50     4     0     0
SMALL
NO_CHARGES


@<TRIPOS>ATOM
     1 N           11.6150    12.7820    16.9070 N.4          1 PRO401   1.0000
     2 CA          12.0150    13.9050    16.0290 C.3          1 PRO401   0.0000
     3 C           11.0230    15.0020    16.3120 C.2          1 PRO401   0.0000
     4 O           11.4230    16.1760    16.4400 O.2          1 PRO401   0.0000
     5 CB          11.9360    13.4570    14.5690 C.3          1 PRO401   0.0000
     6 CG          11.3870    12.0420    14.6490 C.3          1 PRO401   0.0000
     7 CD          11.4570    11.5420    16.1190 C.3          1 PRO401   0.0000
     8 H1          12.3184    12.6420    17.6038 H            1 PRO401   0.0000
     9 HA          12.9419    14.2077    16.2509 H            1 PRO401   0.0000
    10 HB1         11.3203    14.0484    14.0483 H            1 PRO401   0.0000
    11 HB2         12.8419    13.4636    14.1455 H            1 PRO401   0.0000
    12 HG1         10.4361    12.0353    14.3395 H            1 PRO401   0.0000
    13 HG2         11.9317    11.4395    14.0656 H            1 PRO401   0.0000
    14 HD1         10.6164    11.0635    16.3728 H            1 PRO401   0.0000
    15 HD2         12.2397    10.9338    16.2514 H            1 PRO401   0.0000
    16 N            9.7370    14.6540    16.4010 N.am         2 LEU402   0.0000
    17 CA           8.7570    15.6910    16.7180 C.3          2 LEU402   0.0000
    18 C            7.2900    15.3690    16.8150 C.2          2 LEU402   0.0000
    19 O            6.8710    14.4570    17.5460 O.2          2 LEU402   0.0000
    20 CB           8.8820    16.8890    15.7700 C.3          2 LEU402   0.0000
    21 CG           9.2920    18.1490    16.5310 C.3          2 LEU402   0.0000
    22 CD1          8.8400    19.3860    15.7560 C.3          2 LEU402   0.0000
    23 CD2          8.6560    18.1510    17.9420 C.3          2 LEU402   0.0000
    24 H9           9.4513    13.7070    16.2543 H            2 LEU402   0.0000
    25 H10          9.0152    16.0360    17.6204 H            2 LEU402   0.0000
    26 H11          8.0004    17.0477    15.3256 H            2 LEU402   0.0000
    27 H12          9.5733    16.6864    15.0764 H            2 LEU402   0.0000
    28 HG          10.2877    18.1662    16.6216 H            2 LEU402   0.0000
    29 HD11         9.1093    20.2093    16.2557 H            2 LEU402   0.0000
    30 HD12         9.2694    19.3889    14.8529 H            2 LEU402   0.0000
    31 HD13         7.8455    19.3694    15.6522 H            2 LEU402   0.0000
    32 HD21         8.9309    18.9792    18.4304 H            2 LEU402   0.0000
    33 HD22         7.6597    18.1283    17.8586 H            2 LEU402   0.0000
    34 HD23         8.9665    17.3467    18.4487 H            2 LEU402   0.0000
    35 N            6.5150    16.1370    16.0490 N.am         3 GLY403   0.0000
    36 CA           5.0770    16.0710    16.0850 C.3          3 GLY403   0.0000
    37 C            4.9860    17.3770    16.8640 C.2          3 GLY403   0.0000
    38 O            5.7580    18.3440    16.5940 O.2          3 GLY403   0.0000
    39 H20          6.9500    16.7852    15.4240 H            3 GLY403   0.0000
    40 HA1          4.7238    15.2801    16.5847 H            3 GLY403   0.0000
    41 HA2          4.6505    16.1120    15.1814 H            3 GLY403   0.0000
    42 N            4.1160    17.4160    17.8610 N.am         4 GLY404   0.0000
    43 CA           4.0200    18.6120    18.6700 C.3          4 GLY404   0.0000
    44 C            3.5710    18.0870    20.0170 C.2          4 GLY404   0.0000
    45 O            2.7800    18.7920    20.7120 O.co2        4 GLY404   0.0000
    46 OXT          4.0340    16.9610    20.3890 O.co2        4 GLY404  -1.0000
    47 H23          3.5315    16.6276    18.0530 H            4 GLY404   0.0000
    48 H24          3.3474    19.2476    18.2911 H            4 GLY404   0.0000
    49 H25          4.9069    19.0684    18.7411 H            4 GLY404   0.0000
    50 H26         10.7463    13.0036    17.3501 H            4 GLY404   0.0000
@<TRIPOS>BOND
     1    1    7       1
     2    1    2       1
     3    7    6       1
     4    6    5       1
     5    5    2       1
     6    2    3       1
     7    3    4       2
     8    1    8       1
     9    2    9       1
    10    3   16      am
    11    5   10       1
    12    5   11       1
    13    6   12       1
    14    6   13       1
    15    7   14       1
    16    7   15       1
    17   16   17       1
    18   17   20       1
    19   17   18       1
    20   20   21       1
    21   21   22       1
    22   21   23       1
    23   18   19       2
    24   23   34       1
    25   16   24       1
    26   17   25       1
    27   18   35      am
    28   20   26       1
    29   20   27       1
    30   21   28       1
    31   22   29       1
    32   22   30       1
    33   22   31       1
    34   23   32       1
    35   23   33       1
    36   35   36       1
    37   36   37       1
    38   37   38       2
    39   37   42      am
    40   35   39       1
    41   36   40       1
    42   36   41       1
    43   42   43       1
    44   43   44       1
    45   44   45      ar
    46   44   46      ar
    47   43   49       1
    48   42   47       1
    49   43   48       1
    50    1   50       1
@<TRIPOS>SUBSTRUCTURE
     1 PRO401      1 RESIDUE           4 Q     PRO     0 **** PRO Q 401
     2 LEU402     16 RESIDUE           4 Q     LEU     0 **** LEU Q 402
     3 GLY403     35 RESIDUE           4 Q     GLY     0 **** GLY Q 403
     4 GLY404     42 RESIDUE           4 Q     GLY     0 **** GLY Q 404
