@<TRIPOS>MOLECULE
4ejh_0QA_3_ligand
   28    28     1     0     0
SMALL
NO_CHARGES


@<TRIPOS>ATOM
     1 O2          34.8270    11.5390    63.2680 O.2          1 0QA502   0.0000
     2 N3          35.4940    12.5690    63.1260 N.2          1 0QA502   0.0000
     3 N2          35.0900    13.2460    62.0920 N.pl3        1 0QA502   0.0000
     4 C10         33.8260    12.5840    61.7690 C.3          1 0QA502   0.0000
     5 C9          34.9130    14.6070    62.5420 C.3          1 0QA502   0.0000
     6 C8          36.1240    14.9350    63.4060 C.3          1 0QA502   0.0000
     7 C7          37.0940    15.8780    62.7210 C.3          1 0QA502   0.0000
     8 C6          37.2610    15.3880    61.3110 C.2          1 0QA502   0.0000
     9 O1          36.2830    15.2430    60.5750 O.2          1 0QA502   0.0000
    10 C5          38.6420    15.0790    60.8260 C.ar         1 0QA502   0.0000
    11 C1          39.7250    15.2450    61.6830 C.ar         1 0QA502   0.0000
    12 C2          40.9990    14.9440    61.2040 C.ar         1 0QA502   0.0000
    13 C3          41.1500    14.5090    59.8770 C.ar         1 0QA502   0.0000
    14 N1          40.0810    14.3570    59.0760 N.ar         1 0QA502   0.0000
    15 C4          38.8400    14.6270    59.5220 C.ar         1 0QA502   0.0000
    16 H1          33.4121    13.0260    60.9732 H            1 0QA502   0.0000
    17 H2          33.9973    11.6204    61.5636 H            1 0QA502   0.0000
    18 H3          33.2046    12.6531    62.5494 H            1 0QA502   0.0000
    19 H4          34.0731    14.6874    63.0788 H            1 0QA502   0.0000
    20 H5          34.8687    15.2272    61.7588 H            1 0QA502   0.0000
    21 H6          36.6032    14.0841    63.6213 H            1 0QA502   0.0000
    22 H7          35.8066    15.3622    64.2526 H            1 0QA502   0.0000
    23 H8          37.9747    15.8683    63.1945 H            1 0QA502   0.0000
    24 H9          36.7262    16.8079    62.7201 H            1 0QA502   0.0000
    25 H10         39.5930    15.5719    62.6188 H            1 0QA502   0.0000
    26 H11         41.7973    15.0368    61.7991 H            1 0QA502   0.0000
    27 H12         42.0641    14.3099    59.5236 H            1 0QA502   0.0000
    28 H13         38.0555    14.5027    58.9145 H            1 0QA502   0.0000
@<TRIPOS>BOND
     1    1    2       2
     2    2    3       1
     3    3    4       1
     4    3    5       1
     5    5    6       1
     6    6    7       1
     7    7    8       1
     8    8    9       2
     9    8   10       1
    10   10   11      ar
    11   10   15      ar
    12   11   12      ar
    13   12   13      ar
    14   13   14      ar
    15   14   15      ar
    16    4   16       1
    17    4   17       1
    18    4   18       1
    19    5   19       1
    20    5   20       1
    21    6   21       1
    22    6   22       1
    23    7   23       1
    24    7   24       1
    25   11   25       1
    26   12   26       1
    27   13   27       1
    28   15   28       1
@<TRIPOS>SUBSTRUCTURE
     1 0QA502      1 GROUP             4 C     0QA     0 **** 0QA C 502
