@<TRIPOS>MOLECULE
1iyz_NDP_1_ligand
   73    77     1     0     0
SMALL
NO_CHARGES


@<TRIPOS>ATOM
     1 PA          25.7100   -22.7920  -110.8290 P.3          1 NDP350   0.0000
     2 O1A         26.1210   -23.9330  -110.4750 O.co2        1 NDP350   0.0000
     3 O2A         25.9990   -21.3940  -110.2280 O.co2        1 NDP350  -1.0000
     4 O5B         23.9410   -22.7310  -110.6960 O.3          1 NDP350   0.0000
     5 C5B         23.0990   -21.6090  -110.7460 C.3          1 NDP350   0.0000
     6 C4B         22.8710   -21.1170  -109.3490 C.3          1 NDP350   0.0000
     7 O4B         22.2530   -19.8570  -109.5790 O.3          1 NDP350   0.0000
     8 C3B         21.8800   -21.9000  -108.4770 C.3          1 NDP350   0.0000
     9 O3B         22.5690   -22.9980  -107.8230 O.3          1 NDP350   0.0000
    10 C2B         21.2540   -20.8040  -107.6270 C.3          1 NDP350   0.0000
    11 O2B         21.9950   -20.7050  -106.4180 O.3          1 NDP350   0.0000
    12 C1B         21.3740   -19.4950  -108.5230 C.3          1 NDP350   0.0000
    13 N9A         19.9840   -19.1410  -108.8490 N.pl3        1 NDP350   0.0000
    14 C8A         19.3050   -18.0610  -108.4600 C.2          1 NDP350   0.0000
    15 N7A         18.0510   -18.1220  -108.9240 N.2          1 NDP350   0.0000
    16 C5A         17.9970   -19.2530  -109.5920 C.ar         1 NDP350   0.0000
    17 C6A         16.8680   -19.7530  -110.2270 C.ar         1 NDP350   0.0000
    18 N6A         15.7000   -19.1210  -110.2330 N.pl3        1 NDP350   0.0000
    19 N1A         17.0210   -20.9320  -110.8320 N.ar         1 NDP350   0.0000
    20 C2A         18.2000   -21.6150  -110.8380 C.ar         1 NDP350   0.0000
    21 N3A         19.2770   -21.1260  -110.2190 N.ar         1 NDP350   0.0000
    22 C4A         19.1820   -19.9270  -109.5730 C.ar         1 NDP350   0.0000
    23 O3          25.6440   -22.2260  -112.2890 O.3          1 NDP350   0.0000
    24 PN          25.9440   -22.6340  -113.7850 P.3          1 NDP350   0.0000
    25 O1N         27.2470   -22.2920  -114.3210 O.co2        1 NDP350   0.0000
    26 O2N         24.7060   -22.8960  -114.5950 O.co2        1 NDP350  -1.0000
    27 O5D         25.5260   -21.0590  -113.9850 O.3          1 NDP350   0.0000
    28 C5D         24.2290   -20.4370  -113.6430 C.3          1 NDP350   0.0000
    29 C4D         24.2590   -18.9150  -114.0100 C.3          1 NDP350   0.0000
    30 O4D         25.5610   -18.5460  -114.5100 O.3          1 NDP350   0.0000
    31 C3D         23.2890   -18.6300  -115.1570 C.3          1 NDP350   0.0000
    32 O3D         22.5930   -17.4190  -114.8770 O.3          1 NDP350   0.0000
    33 C2D         24.1870   -18.5920  -116.3680 C.3          1 NDP350   0.0000
    34 O2D         23.5520   -17.9940  -117.4870 O.3          1 NDP350   0.0000
    35 C1D         25.3670   -17.7820  -115.7210 C.3          1 NDP350   0.0000
    36 N1N         26.5710   -17.8120  -116.6130 N.ar         1 NDP350   1.0000
    37 C2N         26.5940   -16.7930  -117.5970 C.ar         1 NDP350   0.0000
    38 C3N         27.7350   -16.7600  -118.4970 C.ar         1 NDP350   0.0000
    39 C7N         27.8150   -15.7020  -119.5410 C.2          1 NDP350   0.0000
    40 O7N         28.4550   -15.8240  -120.6150 O.2          1 NDP350   0.0000
    41 N7N         27.1820   -14.5130  -119.3490 N.am         1 NDP350   0.0000
    42 C4N         28.7380   -17.7360  -118.3380 C.ar         1 NDP350   0.0000
    43 C5N         28.6920   -18.7150  -117.3750 C.ar         1 NDP350   0.0000
    44 C6N         27.6090   -18.7580  -116.5060 C.ar         1 NDP350   0.0000
    45 P2B         21.2790   -20.1700  -105.0130 P.3          1 NDP350   0.0000
    46 O1X         22.4090   -19.9550  -104.0840 O.co2        1 NDP350   0.0000
    47 O2X         20.5840   -18.9270  -105.3720 O.co2        1 NDP350  -1.0000
    48 O3X         20.3650   -21.2720  -104.6560 O.co2        1 NDP350  -1.0000
    49 H5B1        22.2249   -21.8624  -111.1604 H            1 NDP350   0.0000
    50 H5B2        23.5297   -20.8891  -111.2903 H            1 NDP350   0.0000
    51 H4B         23.7418   -20.9991  -108.8717 H            1 NDP350   0.0000
    52 H3B         21.1715   -22.2817  -109.0706 H            1 NDP350   0.0000
    53 H5          23.3247   -23.3082  -108.3998 H            1 NDP350   0.0000
    54 H2B         20.2949   -21.0122  -107.4355 H            1 NDP350   0.0000
    55 H1B         21.7865   -18.7603  -107.9844 H            1 NDP350   0.0000
    56 H8A         19.6770   -17.3171  -107.9048 H            1 NDP350   0.0000
    57 H6A1        14.9160   -19.5237  -110.7054 H            1 NDP350   0.0000
    58 H6A2        15.6045   -18.2424  -109.7651 H            1 NDP350   0.0000
    59 H2A         18.2593   -22.4935  -111.3120 H            1 NDP350   0.0000
    60 H5D1        24.0598   -20.5391  -112.6627 H            1 NDP350   0.0000
    61 H5D2        23.4987   -20.8881  -114.1560 H            1 NDP350   0.0000
    62 H4D         24.0243   -18.3609  -113.2114 H            1 NDP350   0.0000
    63 H3D         22.6366   -19.3829  -115.2432 H            1 NDP350   0.0000
    64 H16         21.9547   -17.2217  -115.6211 H            1 NDP350   0.0000
    65 H2D         24.4911   -19.5162  -116.5991 H            1 NDP350   0.0000
    66 H18         24.1810   -17.9898  -118.2644 H            1 NDP350   0.0000
    67 H1D         25.0917   -16.8427  -115.5161 H            1 NDP350   0.0000
    68 H2N         25.8549   -16.1233  -117.6695 H            1 NDP350   0.0000
    69 H7N1        27.2339   -13.8003  -120.0485 H            1 NDP350   0.0000
    70 H7N2        26.6649   -14.3519  -118.5084 H            1 NDP350   0.0000
    71 H4N         29.5230   -17.7154  -118.9571 H            1 NDP350   0.0000
    72 H5N         29.4283   -19.3876  -117.3007 H            1 NDP350   0.0000
    73 H6N         27.5661   -19.4650  -115.8001 H            1 NDP350   0.0000
@<TRIPOS>BOND
     1    1    2      ar
     2    1    3      ar
     3    1    4       1
     4    1   23       1
     5    4    5       1
     6    5    6       1
     7    6    7       1
     8    6    8       1
     9    7   12       1
    10    8    9       1
    11    8   10       1
    12   10   11       1
    13   10   12       1
    14   11   45       1
    15   12   13       1
    16   13   14       1
    17   13   22       1
    18   14   15       2
    19   15   16       1
    20   16   17      ar
    21   16   22      ar
    22   17   18       1
    23   17   19      ar
    24   19   20      ar
    25   20   21      ar
    26   21   22      ar
    27   23   24       1
    28   24   25      ar
    29   24   26      ar
    30   24   27       1
    31   27   28       1
    32   28   29       1
    33   29   30       1
    34   29   31       1
    35   30   35       1
    36   31   32       1
    37   31   33       1
    38   33   34       1
    39   33   35       1
    40   35   36       1
    41   36   37      ar
    42   36   44      ar
    43   37   38      ar
    44   38   39       1
    45   38   42      ar
    46   39   40       2
    47   39   41      am
    48   42   43      ar
    49   43   44      ar
    50   45   46      ar
    51   45   47      ar
    52   45   48      ar
    53   43   72       1
    54    5   49       1
    55    5   50       1
    56    6   51       1
    57    8   52       1
    58    9   53       1
    59   10   54       1
    60   12   55       1
    61   14   56       1
    62   18   57       1
    63   18   58       1
    64   20   59       1
    65   44   73       1
    66   28   60       1
    67   28   61       1
    68   29   62       1
    69   31   63       1
    70   32   64       1
    71   33   65       1
    72   34   66       1
    73   35   67       1
    74   37   68       1
    75   41   69       1
    76   41   70       1
    77   42   71       1
@<TRIPOS>SUBSTRUCTURE
     1 NDP350      1 GROUP             4 A     NDP     0 **** NDP A 350
