@<TRIPOS>MOLECULE
3ics_ADP_3_ligand
   39    41     1     0     0
SMALL
NO_CHARGES


@<TRIPOS>ATOM
     1 PB          13.6630    65.5480    15.3810 P.3          1 ADP600   0.0000
     2 O1B         13.2740    64.7510    14.1500 O.co2        1 ADP600   0.0000
     3 O2B         12.4870    65.9640    16.2420 O.co2        1 ADP600  -1.0000
     4 O3B         14.8140    64.9630    16.1610 O.co2        1 ADP600  -1.0000
     5 PA          14.8070    68.1510    15.6970 P.3          1 ADP600   0.0000
     6 O1A         14.8180    67.6540    17.1230 O.co2        1 ADP600   0.0000
     7 O2A         14.0620    69.4160    15.3500 O.co2        1 ADP600  -1.0000
     8 O3A         14.2710    66.9260    14.7880 O.3          1 ADP600   0.0000
     9 O5'         16.3130    68.3490    15.1760 O.3          1 ADP600   0.0000
    10 C5'         16.6270    68.1920    13.7940 C.3          1 ADP600   0.0000
    11 C4'         18.0910    68.5050    13.5120 C.3          1 ADP600   0.0000
    12 O4'         18.3380    68.4280    12.1110 O.3          1 ADP600   0.0000
    13 C3'         18.5040    69.9110    13.9210 C.3          1 ADP600   0.0000
    14 O3'         19.6990    69.7830    14.6950 O.3          1 ADP600   0.0000
    15 C2'         18.7650    70.6600    12.6230 C.3          1 ADP600   0.0000
    16 O2'         19.7990    71.6480    12.7010 O.3          1 ADP600   0.0000
    17 C1'         19.1630    69.5230    11.7040 C.3          1 ADP600   0.0000
    18 N9          18.9450    69.7850    10.2600 N.pl3        1 ADP600   0.0000
    19 C8          17.9250    70.4730     9.6960 C.2          1 ADP600   0.0000
    20 N7          18.0400    70.4950     8.3430 N.2          1 ADP600   0.0000
    21 C5          19.1520    69.7960     8.0300 C.ar         1 ADP600   0.0000
    22 C6          19.8630    69.4200     6.7850 C.ar         1 ADP600   0.0000
    23 N6          19.3760    69.8180     5.5790 N.pl3        1 ADP600   0.0000
    24 N1          21.0040    68.6820     6.8980 N.ar         1 ADP600   0.0000
    25 C2          21.4930    68.2870     8.0940 C.ar         1 ADP600   0.0000
    26 N3          20.8980    68.5940     9.2680 N.ar         1 ADP600   0.0000
    27 C4          19.7510    69.3300     9.2970 C.ar         1 ADP600   0.0000
    28 H5'1        16.0537    68.8121    13.2585 H            1 ADP600   0.0000
    29 H5'2        16.4393    67.2477    13.5239 H            1 ADP600   0.0000
    30 H4'         18.6682    67.8401    13.9862 H            1 ADP600   0.0000
    31 H3'         17.7815    70.3555    14.4506 H            1 ADP600   0.0000
    32 H5          20.4106    69.3515    14.1406 H            1 ADP600   0.0000
    33 H2'         17.9180    71.0798    12.2968 H            1 ADP600   0.0000
    34 H7          20.6781    71.2292    12.4732 H            1 ADP600   0.0000
    35 H1'         20.1234    69.2911    11.8586 H            1 ADP600   0.0000
    36 H9          17.1843    70.9078    10.2081 H            1 ADP600   0.0000
    37 H10         19.8547    69.5650     4.7383 H            1 ADP600   0.0000
    38 H11         18.5392    70.3636     5.5331 H            1 ADP600   0.0000
    39 H12         22.3322    67.7435     8.1113 H            1 ADP600   0.0000
@<TRIPOS>BOND
     1    1    2      ar
     2    1    3      ar
     3    1    4      ar
     4    1    8       1
     5    5    6      ar
     6    5    7      ar
     7    5    8       1
     8    5    9       1
     9    9   10       1
    10   10   11       1
    11   11   12       1
    12   11   13       1
    13   12   17       1
    14   13   14       1
    15   13   15       1
    16   15   16       1
    17   15   17       1
    18   17   18       1
    19   18   19       1
    20   18   27       1
    21   19   20       2
    22   20   21       1
    23   21   22      ar
    24   21   27      ar
    25   22   23       1
    26   22   24      ar
    27   24   25      ar
    28   25   26      ar
    29   26   27      ar
    30   25   39       1
    31   23   38       1
    32   23   37       1
    33   10   28       1
    34   10   29       1
    35   11   30       1
    36   13   31       1
    37   14   32       1
    38   15   33       1
    39   16   34       1
    40   17   35       1
    41   19   36       1
@<TRIPOS>SUBSTRUCTURE
     1 ADP600      1 GROUP             4 B     ADP     0 **** ADP B 600
