@<TRIPOS>MOLECULE
3ofm_4B0_1_ligand
   24    25     1     0     0
SMALL
NO_CHARGES


@<TRIPOS>ATOM
     1 OAA          3.7310   -11.4480     4.6080 O.3          1 4B0351   0.0000
     2 BRAB        -1.8870   -12.5080    11.3870 Br           1 4B0351   0.0000
     3 BRAC         1.1680   -12.0410    10.4910 Br           1 4B0351   0.0000
     4 BRAD        -4.2550   -13.3920     9.1730 Br           1 4B0351   0.0000
     5 BRAE         2.0040   -12.4680     7.2590 Br           1 4B0351   0.0000
     6 CAF          2.6940   -12.2720     4.0040 C.3          1 4B0351   0.0000
     7 CAG          1.3240   -12.0590     4.6960 C.3          1 4B0351   0.0000
     8 CAH          0.3960   -13.2920     4.6110 C.3          1 4B0351   0.0000
     9 NAI         -2.7030   -13.6270     6.1770 N.2          1 4B0351   0.0000
    10 NAJ         -1.8990   -13.6360     5.2320 N.2          1 4B0351   0.0000
    11 CAK         -1.4540   -12.7500     9.5580 C.ar         1 4B0351   0.0000
    12 CAL         -0.1240   -12.5510     9.1710 C.ar         1 4B0351   0.0000
    13 CAM         -2.4370   -13.1230     8.6270 C.ar         1 4B0351   0.0000
    14 CAN          0.2250   -12.7230     7.8280 C.ar         1 4B0351   0.0000
    15 CAO         -2.0550   -13.2900     7.2900 C.ar         1 4B0351   0.0000
    16 CAP         -0.7370   -13.0920     6.8910 C.ar         1 4B0351   0.0000
    17 NAQ         -0.7490   -13.3240     5.5780 N.pl3        1 4B0351   0.0000
    18 HAA          3.8246   -11.6856     5.5748 H            1 4B0351   0.0000
    19 HAF1         2.9539   -13.2340     4.0872 H            1 4B0351   0.0000
    20 HAF2         2.6103   -12.0318     3.0369 H            1 4B0351   0.0000
    21 HAG1         0.8647   -11.2857     4.2588 H            1 4B0351   0.0000
    22 HAG2         1.4851   -11.8492     5.6604 H            1 4B0351   0.0000
    23 HAH1         0.9542   -14.1061     4.7715 H            1 4B0351   0.0000
    24 HAH2         0.0161   -13.3252     3.6866 H            1 4B0351   0.0000
@<TRIPOS>BOND
     1    1    6       1
     2    2   11       1
     3    3   12       1
     4    4   13       1
     5    5   14       1
     6    6    7       1
     7    7    8       1
     8    8   17       1
     9    9   10       2
    10    9   15       1
    11   10   17       1
    12   11   12      ar
    13   11   13      ar
    14   12   14      ar
    15   13   15      ar
    16   14   16      ar
    17   15   16      ar
    18   16   17       1
    19    1   18       1
    20    6   19       1
    21    6   20       1
    22    7   21       1
    23    7   22       1
    24    8   23       1
    25    8   24       1
@<TRIPOS>SUBSTRUCTURE
     1 4B0351      1 GROUP             4 A     4B0     0 **** 4B0 A 351
