@<TRIPOS>MOLECULE
4eil_FOL_16_ligand
   49    51     1     0     0
SMALL
NO_CHARGES


@<TRIPOS>ATOM
     1 N1          48.2770  -103.3650   -25.0400 N.2          1 FOL703   0.0000
     2 C2          47.8840  -102.7230   -26.1520 C.2          1 FOL703   0.0000
     3 NA2         46.8340  -101.9210   -26.1360 N.pl3        1 FOL703   0.0000
     4 N3          48.5680  -102.8810   -27.3510 N.pl3        1 FOL703   0.0000
     5 C4          49.6680  -103.7170   -27.3910 C.2          1 FOL703   0.0000
     6 O4          50.2960  -103.8850   -28.4290 O.2          1 FOL703   0.0000
     7 C4A         50.0620  -104.3660   -26.2540 C.2          1 FOL703   0.0000
     8 N5          51.1380  -105.1600   -26.3580 N.pl3        1 FOL703   0.0000
     9 C6          51.5750  -105.8180   -25.2880 C.2          1 FOL703   0.0000
    10 C7          50.8810  -105.6500   -24.0820 C.2          1 FOL703   0.0000
    11 N8          49.7500  -104.8200   -23.9810 N.2          1 FOL703   0.0000
    12 C8A         49.3490  -104.1760   -25.0750 C.2          1 FOL703   0.0000
    13 C9          52.6930  -106.6730   -25.3170 C.2          1 FOL703   0.0000
    14 N10         53.6840  -106.6820   -26.4440 N.pl3        1 FOL703   0.0000
    15 C11         56.1110  -103.3680   -27.2690 C.ar         1 FOL703   0.0000
    16 C12         55.1400  -103.3350   -26.2650 C.ar         1 FOL703   0.0000
    17 C13         54.3420  -104.4500   -25.9910 C.ar         1 FOL703   0.0000
    18 C14         54.4440  -105.6010   -26.7740 C.ar         1 FOL703   0.0000
    19 C15         55.4520  -105.6700   -27.7360 C.ar         1 FOL703   0.0000
    20 C16         56.2860  -104.5670   -27.9690 C.ar         1 FOL703   0.0000
    21 C           56.9190  -102.2510   -27.5160 C.2          1 FOL703   0.0000
    22 O           58.0260  -102.3770   -28.0550 O.2          1 FOL703   0.0000
    23 N           56.5170  -101.1130   -26.8940 N.am         1 FOL703   0.0000
    24 CA          57.1760   -99.7860   -26.9780 C.3          1 FOL703   0.0000
    25 CB          56.6410   -99.1340   -28.2760 C.3          1 FOL703   0.0000
    26 CG          57.1390   -97.6990   -28.5380 C.3          1 FOL703   0.0000
    27 CD          56.5590   -97.1750   -29.8700 C.2          1 FOL703   0.0000
    28 OE1         56.6430   -97.9460   -30.8520 O.co2        1 FOL703   0.0000
    29 OE2         56.1030   -96.0090   -29.8980 O.co2        1 FOL703  -1.0000
    30 CT          56.8000   -98.8800   -25.7990 C.2          1 FOL703   0.0000
    31 O1          57.6020   -97.9790   -25.4610 O.co2        1 FOL703   0.0000
    32 O2          55.6870   -99.0850   -25.2740 O.co2        1 FOL703  -1.0000
    33 HA21        46.5524  -101.4492   -26.9715 H            1 FOL703   0.0000
    34 HA22        46.3209  -101.7859   -25.2884 H            1 FOL703   0.0000
    35 H3          51.6089  -105.2567   -27.2349 H            1 FOL703   0.0000
    36 H4          51.1999  -106.1354   -23.2679 H            1 FOL703   0.0000
    37 H5          52.8331  -107.3024   -24.5526 H            1 FOL703   0.0000
    38 H6          53.7913  -107.5209   -26.9776 H            1 FOL703   0.0000
    39 H7          55.0133  -102.4982   -25.7323 H            1 FOL703   0.0000
    40 H8          53.6944  -104.4227   -25.2295 H            1 FOL703   0.0000
    41 H9          55.5805  -106.5106   -28.2623 H            1 FOL703   0.0000
    42 H10         57.0179  -104.6384   -28.6466 H            1 FOL703   0.0000
    43 H11         55.6976  -101.1751   -26.3242 H            1 FOL703   0.0000
    44 HA          58.1688   -99.8947   -27.0286 H            1 FOL703   0.0000
    45 HB1         55.6427   -99.1109   -28.2228 H            1 FOL703   0.0000
    46 HB2         56.9205   -99.7050   -29.0479 H            1 FOL703   0.0000
    47 HG1         58.1377   -97.6989   -28.5886 H            1 FOL703   0.0000
    48 HG2         56.8430   -97.1039   -27.7908 H            1 FOL703   0.0000
    49 H17         48.2688  -102.3968   -28.1732 H            1 FOL703   0.0000
@<TRIPOS>BOND
     1    1    2       2
     2    1   12       1
     3    2    3       1
     4    2    4       1
     5    4    5       1
     6    5    6       2
     7    5    7       1
     8    7    8       1
     9    7   12       2
    10    8    9       1
    11    9   10       1
    12    9   13       2
    13   10   11       2
    14   11   12       1
    15   13   14       1
    16   14   18       1
    17   15   16      ar
    18   15   20      ar
    19   15   21       1
    20   16   17      ar
    21   17   18      ar
    22   18   19      ar
    23   19   20      ar
    24   21   22       2
    25   21   23      am
    26   23   24       1
    27   24   25       1
    28   24   30       1
    29   25   26       1
    30   26   27       1
    31   27   28      ar
    32   27   29      ar
    33   30   31      ar
    34   30   32      ar
    35    4   49       1
    36    3   33       1
    37    3   34       1
    38    8   35       1
    39   10   36       1
    40   13   37       1
    41   14   38       1
    42   16   39       1
    43   17   40       1
    44   19   41       1
    45   20   42       1
    46   23   43       1
    47   24   44       1
    48   25   45       1
    49   25   46       1
    50   26   47       1
    51   26   48       1
@<TRIPOS>SUBSTRUCTURE
     1 FOL703      1 GROUP             4 H     FOL     0 **** FOL H 703
