@<TRIPOS>MOLECULE
1nv9_SAH_1_ligand
   46    48     1     0     0
SMALL
NO_CHARGES


@<TRIPOS>ATOM
     1 N           24.1460     5.6400    19.2360 N.4          1 SAH300   1.0000
     2 CA          25.3960     5.9280    18.5580 C.3          1 SAH300   0.0000
     3 CB          25.6600     5.0310    17.3760 C.3          1 SAH300   0.0000
     4 CG          24.5840     5.2130    16.2910 C.3          1 SAH300   0.0000
     5 SD          25.0000     4.1190    14.9340 S.3          1 SAH300   0.0000
     6 C           25.2790     7.3620    18.1000 C.2          1 SAH300   0.0000
     7 O           26.3000     7.8620    17.6430 O.co2        1 SAH300   0.0000
     8 OXT         24.1080     7.7720    18.2620 O.co2        1 SAH300  -1.0000
     9 C5'         24.2090     2.5030    15.1860 C.3          1 SAH300   0.0000
    10 C4'         24.7440     1.5340    16.2710 C.3          1 SAH300   0.0000
    11 O4'         23.8220     0.4660    16.3610 O.3          1 SAH300   0.0000
    12 C3'         26.0520     0.8470    15.8780 C.3          1 SAH300   0.0000
    13 O3'         27.0770     0.9720    16.8240 O.3          1 SAH300   0.0000
    14 C2'         25.7300    -0.6240    15.6330 C.3          1 SAH300   0.0000
    15 O2'         26.7080    -1.4680    16.1820 O.3          1 SAH300   0.0000
    16 C1'         24.4730    -0.7960    16.4680 C.3          1 SAH300   0.0000
    17 N9          23.4140    -1.7500    16.1140 N.pl3        1 SAH300   0.0000
    18 C8          22.8140    -1.9170    14.9040 C.2          1 SAH300   0.0000
    19 N7          21.8480    -2.8500    15.0310 N.2          1 SAH300   0.0000
    20 C5          21.8190    -3.2500    16.3260 C.ar         1 SAH300   0.0000
    21 C6          20.9850    -4.0900    17.0400 C.ar         1 SAH300   0.0000
    22 N6          20.0100    -4.7910    16.4990 N.pl3        1 SAH300   0.0000
    23 N1          21.1870    -4.2270    18.3520 N.ar         1 SAH300   0.0000
    24 C2          22.1510    -3.5240    19.0110 C.ar         1 SAH300   0.0000
    25 N3          22.9290    -2.6900    18.3280 N.ar         1 SAH300   0.0000
    26 C4          22.7750    -2.5500    17.0050 C.ar         1 SAH300   0.0000
    27 H1          24.2322     5.8691    20.2056 H            1 SAH300   0.0000
    28 H2          23.4127     6.1845    18.8287 H            1 SAH300   0.0000
    29 HA          26.1513     5.8490    19.2086 H            1 SAH300   0.0000
    30 HB1         25.6578     4.0789    17.6817 H            1 SAH300   0.0000
    31 HB2         26.5547     5.2549    16.9895 H            1 SAH300   0.0000
    32 HG1         24.5747     6.1616    15.9747 H            1 SAH300   0.0000
    33 HG2         23.6848     4.9753    16.6582 H            1 SAH300   0.0000
    34 H5'1        24.2633     2.0168    14.3138 H            1 SAH300   0.0000
    35 H5'2        23.2508     2.6831    15.4081 H            1 SAH300   0.0000
    36 H4'         24.8365     2.0001    17.1509 H            1 SAH300   0.0000
    37 H3'         26.3693     1.2459    15.0176 H            1 SAH300   0.0000
    38 H12         26.7830     0.5667    17.6896 H            1 SAH300   0.0000
    39 H2'         25.5675    -0.8169    14.6653 H            1 SAH300   0.0000
    40 H14         26.7618    -1.3178    17.1692 H            1 SAH300   0.0000
    41 H1'         24.7360    -0.9442    17.4213 H            1 SAH300   0.0000
    42 H16         23.0494    -1.4303    14.0628 H            1 SAH300   0.0000
    43 H17         19.4413    -5.3814    17.0717 H            1 SAH300   0.0000
    44 H18         19.8385    -4.7329    15.5155 H            1 SAH300   0.0000
    45 H19         22.2717    -3.6344    19.9975 H            1 SAH300   0.0000
    46 H20         23.9315     4.6679    19.1410 H            1 SAH300   0.0000
@<TRIPOS>BOND
     1    1    2       1
     2    2    3       1
     3    2    6       1
     4    3    4       1
     5    4    5       1
     6    5    9       1
     7    6    7      ar
     8    6    8      ar
     9    9   10       1
    10   10   11       1
    11   10   12       1
    12   11   16       1
    13   12   13       1
    14   12   14       1
    15   14   15       1
    16   14   16       1
    17   16   17       1
    18   17   18       1
    19   17   26       1
    20   18   19       2
    21   19   20       1
    22   20   21      ar
    23   20   26      ar
    24   21   22       1
    25   21   23      ar
    26   23   24      ar
    27   24   25      ar
    28   25   26      ar
    29    1   27       1
    30    1   28       1
    31    2   29       1
    32    3   30       1
    33    3   31       1
    34    4   32       1
    35    4   33       1
    36    1   46       1
    37    9   34       1
    38    9   35       1
    39   10   36       1
    40   12   37       1
    41   13   38       1
    42   14   39       1
    43   15   40       1
    44   16   41       1
    45   18   42       1
    46   22   43       1
    47   22   44       1
    48   24   45       1
@<TRIPOS>SUBSTRUCTURE
     1 SAH300      1 GROUP             4 A     SAH     0 **** SAH A 300
