@<TRIPOS>MOLECULE
3lkz_SFG_2_ligand
   51    53     1     0     0
SMALL
NO_CHARGES


@<TRIPOS>ATOM
     1 N            2.7310    -1.2500   -52.0750 N.4          1 SFG301   1.0000
     2 CA           3.1390    -0.0020   -51.4190 C.3          1 SFG301   0.0000
     3 C            2.0180     0.4690   -50.5200 C.2          1 SFG301   0.0000
     4 O            1.0600    -0.2390   -50.2930 O.co2        1 SFG301   0.0000
     5 OXT          2.1100     1.6800   -49.9430 O.co2        1 SFG301  -1.0000
     6 CB           3.4480     1.0860   -52.4660 C.3          1 SFG301   0.0000
     7 CG           4.6280     0.6550   -53.3470 C.3          1 SFG301   0.0000
     8 CD           4.9580     1.7480   -54.3700 C.3          1 SFG301   0.0000
     9 NE           3.8060     1.9670   -55.2530 N.4          1 SFG301   1.0000
    10 C5'          6.1720     1.3360   -55.2160 C.3          1 SFG301   0.0000
    11 C4'          7.4470     1.6830   -54.4280 C.3          1 SFG301   0.0000
    12 O4'          8.6120     1.0270   -54.9550 O.3          1 SFG301   0.0000
    13 C3'          7.7360     3.1940   -54.4250 C.3          1 SFG301   0.0000
    14 O3'          7.6040     3.7270   -53.1140 O.3          1 SFG301   0.0000
    15 C2'          9.1740     3.3150   -54.9680 C.3          1 SFG301   0.0000
    16 O2'          9.8910     4.3490   -54.2840 O.3          1 SFG301   0.0000
    17 C1'          9.7450     1.9050   -54.7080 C.3          1 SFG301   0.0000
    18 N9          10.8200     1.5290   -55.6280 N.pl3        1 SFG301   0.0000
    19 C8          10.9730     1.8970   -56.9420 C.2          1 SFG301   0.0000
    20 N7          12.0370     1.3550   -57.4370 N.2          1 SFG301   0.0000
    21 C5          12.6420     0.6060   -56.4870 C.ar         1 SFG301   0.0000
    22 C6          13.8070    -0.2130   -56.4300 C.ar         1 SFG301   0.0000
    23 N6          14.6060    -0.3770   -57.5360 N.pl3        1 SFG301   0.0000
    24 N1          14.1120    -0.8310   -55.2660 N.ar         1 SFG301   0.0000
    25 C2          13.3410    -0.6900   -54.1720 C.ar         1 SFG301   0.0000
    26 N3          12.2450     0.0600   -54.1870 N.ar         1 SFG301   0.0000
    27 C4          11.8650     0.7160   -55.3070 C.ar         1 SFG301   0.0000
    28 H1           2.2732    -1.0385   -52.9385 H            1 SFG301   0.0000
    29 H2           3.5387    -1.8116   -52.2547 H            1 SFG301   0.0000
    30 HA           3.9558    -0.1708   -50.8673 H            1 SFG301   0.0000
    31 HB1          3.6798     1.9386   -51.9976 H            1 SFG301   0.0000
    32 HB2          2.6422     1.2297   -53.0405 H            1 SFG301   0.0000
    33 HG1          4.3882    -0.1870   -53.8302 H            1 SFG301   0.0000
    34 HG2          5.4280     0.4917   -52.7696 H            1 SFG301   0.0000
    35 HD           5.1677     2.5979   -53.8866 H            1 SFG301   0.0000
    36 HE1          3.2144     2.6713   -54.8606 H            1 SFG301   0.0000
    37 HE2          4.1270     2.2643   -56.1522 H            1 SFG301   0.0000
    38 H5'1         6.1644     1.8332   -56.0836 H            1 SFG301   0.0000
    39 H5'2         6.1418     0.3526   -55.3951 H            1 SFG301   0.0000
    40 H4'          7.3212     1.3860   -53.4815 H            1 SFG301   0.0000
    41 H3'          7.1024     3.6593   -55.0431 H            1 SFG301   0.0000
    42 H15          7.3095     4.6810   -53.1701 H            1 SFG301   0.0000
    43 H2'          9.1555     3.5021   -55.9502 H            1 SFG301   0.0000
    44 H17          9.9321     4.1364   -53.3077 H            1 SFG301   0.0000
    45 H1'         10.0515     1.8215   -53.7598 H            1 SFG301   0.0000
    46 H19         10.3508     2.4979   -57.4438 H            1 SFG301   0.0000
    47 H20         15.4208    -0.9543   -57.4830 H            1 SFG301   0.0000
    48 H21         14.3726     0.0810   -58.3938 H            1 SFG301   0.0000
    49 H22         13.5993    -1.1608   -53.3284 H            1 SFG301   0.0000
    50 H23          2.1031    -1.7502   -51.4787 H            1 SFG301   0.0000
    51 HE3          3.2918     1.1146   -55.3477 H            1 SFG301   0.0000
@<TRIPOS>BOND
     1    1    2       1
     2    2    3       1
     3    2    6       1
     4    3    4      ar
     5    3    5      ar
     6    6    7       1
     7    7    8       1
     8    8    9       1
     9    8   10       1
    10   10   11       1
    11   11   12       1
    12   11   13       1
    13   12   17       1
    14   13   14       1
    15   13   15       1
    16   15   16       1
    17   15   17       1
    18   17   18       1
    19   18   19       1
    20   18   27       1
    21   19   20       2
    22   20   21       1
    23   21   22      ar
    24   21   27      ar
    25   22   23       1
    26   22   24      ar
    27   24   25      ar
    28   25   26      ar
    29   26   27      ar
    30    1   28       1
    31    1   29       1
    32    2   30       1
    33    1   50       1
    34    6   31       1
    35    6   32       1
    36    7   33       1
    37    7   34       1
    38    8   35       1
    39    9   36       1
    40    9   37       1
    41   10   38       1
    42   10   39       1
    43   11   40       1
    44   13   41       1
    45   14   42       1
    46   15   43       1
    47   16   44       1
    48   17   45       1
    49   19   46       1
    50   23   47       1
    51   23   48       1
    52   25   49       1
    53    9   51       1
@<TRIPOS>SUBSTRUCTURE
     1 SFG301      1 GROUP             4 B     SFG     0 **** SFG B 301
