@<TRIPOS>MOLECULE
4dpm_COA_5_ligand
   80    82     1     0     0
SMALL
NO_CHARGES


@<TRIPOS>ATOM
     1 N1A          2.8850   -25.3740    49.7560 N.ar         1 COA402   0.0000
     2 C2A          3.5210   -25.0780    48.6160 C.ar         1 COA402   0.0000
     3 N3A          4.0310   -23.8550    48.3810 N.ar         1 COA402   0.0000
     4 C4A          3.8850   -22.8300    49.2890 C.ar         1 COA402   0.0000
     5 C5A          3.2020   -23.0570    50.4720 C.ar         1 COA402   0.0000
     6 C6A          2.6700   -24.4150    50.6990 C.ar         1 COA402   0.0000
     7 N6A          1.9920   -24.6610    51.8420 N.pl3        1 COA402   0.0000
     8 N7A          3.2100   -21.9270    51.1970 N.2          1 COA402   0.0000
     9 C8A          3.8770   -21.0000    50.4660 C.2          1 COA402   0.0000
    10 N9A          4.2880   -21.5690    49.3200 N.pl3        1 COA402   0.0000
    11 C1B          5.0240   -20.8890    48.2480 C.3          1 COA402   0.0000
    12 C2B          4.4710   -19.4570    48.0270 C.3          1 COA402   0.0000
    13 O2B          3.2040   -19.4870    47.3760 O.3          1 COA402   0.0000
    14 C3B          5.6060   -18.9500    47.1660 C.3          1 COA402   0.0000
    15 O3B          5.3650   -19.5250    45.9190 O.3          1 COA402   0.0000
    16 P3B          5.0670   -18.7240    44.6280 P.3          1 COA402   0.0000
    17 O7A          4.2190   -17.5640    45.1150 O.co2        1 COA402   0.0000
    18 O8A          6.3570   -18.3050    43.9270 O.co2        1 COA402  -1.0000
    19 O9A          4.2540   -19.6680    43.7640 O.co2        1 COA402  -1.0000
    20 C4B          6.8810   -19.6270    47.7620 C.3          1 COA402   0.0000
    21 O4B          6.4340   -20.7740    48.4970 O.3          1 COA402   0.0000
    22 C5B          7.7150   -18.7650    48.7010 C.3          1 COA402   0.0000
    23 O5B          6.8810   -17.8500    49.4500 O.3          1 COA402   0.0000
    24 P1A          7.1950   -17.6690    51.0020 P.3          1 COA402   0.0000
    25 O1A          6.2130   -16.7200    51.6070 O.co2        1 COA402   0.0000
    26 O2A          7.3960   -18.9920    51.7200 O.co2        1 COA402  -1.0000
    27 O3A          8.6170   -16.9720    50.8170 O.3          1 COA402   0.0000
    28 P2A          9.2640   -16.0980    51.9700 P.3          1 COA402   0.0000
    29 O4A          8.1690   -15.1230    52.4080 O.co2        1 COA402   0.0000
    30 O5A         10.5200   -15.5340    51.3800 O.co2        1 COA402  -1.0000
    31 O6A          9.4930   -17.1060    53.1670 O.3          1 COA402   0.0000
    32 CBP         11.0020   -18.5400    54.4580 C.3          1 COA402   0.0000
    33 CCP         10.5830   -18.0080    53.0880 C.3          1 COA402   0.0000
    34 CDP         12.0520   -19.5660    54.0720 C.3          1 COA402   0.0000
    35 CEP         11.6280   -17.4460    55.3490 C.3          1 COA402   0.0000
    36 CAP          9.7420   -19.1310    55.1760 C.3          1 COA402   0.0000
    37 OAP          9.0110   -19.9870    54.2800 O.3          1 COA402   0.0000
    38 C9P         10.0930   -19.8630    56.4550 C.2          1 COA402   0.0000
    39 O9P          9.9950   -19.3010    57.5400 O.2          1 COA402   0.0000
    40 N8P         10.5220   -21.1310    56.3400 N.am         1 COA402   0.0000
    41 C7P         10.9750   -22.0430    57.3760 C.3          1 COA402   0.0000
    42 C6P         12.3490   -22.3580    56.7750 C.3          1 COA402   0.0000
    43 C5P         13.4760   -21.5200    57.3450 C.2          1 COA402   0.0000
    44 O5P         14.5960   -22.0060    57.2460 O.2          1 COA402   0.0000
    45 N4P         13.2140   -20.3260    57.9380 N.am         1 COA402   0.0000
    46 C3P         14.2720   -19.4930    58.5140 C.3          1 COA402   0.0000
    47 C2P         15.2770   -19.3790    57.3460 C.3          1 COA402   0.0000
    48 S1P         16.7500   -18.5120    57.8010 S.3          1 COA402   0.0000
    49 H2A          3.6202   -25.7871    47.9179 H            1 COA402   0.0000
    50 H6A1         1.8554   -23.9292    52.5097 H            1 COA402   0.0000
    51 H6A2         1.6269   -25.5748    52.0200 H            1 COA402   0.0000
    52 H8A          4.0366   -20.0502    50.7351 H            1 COA402   0.0000
    53 H1B          4.8966   -21.4079    47.4027 H            1 COA402   0.0000
    54 H2B          4.4207   -18.9534    48.8895 H            1 COA402   0.0000
    55 H7           2.7224   -20.3280    47.6225 H            1 COA402   0.0000
    56 H3B          5.6650   -17.9522    47.1367 H            1 COA402   0.0000
    57 H4B          7.4621   -19.9353    47.0088 H            1 COA402   0.0000
    58 H5B1         8.3740   -18.2397    48.1627 H            1 COA402   0.0000
    59 H5B2         8.2043   -19.3582    49.3403 H            1 COA402   0.0000
    60 HCP1        11.3616   -17.5350    52.6757 H            1 COA402   0.0000
    61 HCP2        10.3188   -18.7807    52.5109 H            1 COA402   0.0000
    62 HDP1        12.4152   -19.9980    54.8975 H            1 COA402   0.0000
    63 HDP2        11.6379   -20.2624    53.4859 H            1 COA402   0.0000
    64 HDP3        12.7946   -19.1134    53.5783 H            1 COA402   0.0000
    65 HEP1        11.8849   -17.8410    56.2310 H            1 COA402   0.0000
    66 HEP2        12.4412   -17.0755    54.9002 H            1 COA402   0.0000
    67 HEP3        10.9635   -16.7127    55.4930 H            1 COA402   0.0000
    68 HAP          9.1451   -18.3662    55.4187 H            1 COA402   0.0000
    69 H21          8.7151   -19.4604    53.4831 H            1 COA402   0.0000
    70 H8P         10.5307   -21.4988    55.4101 H            1 COA402   0.0000
    71 H7P1        10.3958   -22.8549    57.4488 H            1 COA402   0.0000
    72 H7P2        11.0426   -21.6005    58.2702 H            1 COA402   0.0000
    73 H6P1        12.3054   -22.1979    55.7889 H            1 COA402   0.0000
    74 H6P2        12.5547   -23.3213    56.9475 H            1 COA402   0.0000
    75 H4P         12.2678   -20.0055    57.9826 H            1 COA402   0.0000
    76 H3P1        14.6888   -19.9354    59.3081 H            1 COA402   0.0000
    77 H3P2        13.9215   -18.5946    58.7787 H            1 COA402   0.0000
    78 H2P1        14.8378   -18.8910    56.5917 H            1 COA402   0.0000
    79 H2P2        15.5266   -20.3000    57.0468 H            1 COA402   0.0000
    80 H1P         17.5192   -18.8563    57.2626 H            1 COA402   0.0000
@<TRIPOS>BOND
     1    1    2      ar
     2    1    6      ar
     3    2    3      ar
     4    3    4      ar
     5    4    5      ar
     6    4   10       1
     7    5    6      ar
     8    5    8       1
     9    6    7       1
    10    8    9       2
    11    9   10       1
    12   10   11       1
    13   11   12       1
    14   11   21       1
    15   12   13       1
    16   12   14       1
    17   14   15       1
    18   14   20       1
    19   15   16       1
    20   16   17      ar
    21   16   18      ar
    22   16   19      ar
    23   20   21       1
    24   20   22       1
    25   22   23       1
    26   23   24       1
    27   24   25      ar
    28   24   26      ar
    29   24   27       1
    30   27   28       1
    31   28   29      ar
    32   28   30      ar
    33   28   31       1
    34   31   33       1
    35   32   33       1
    36   32   34       1
    37   32   35       1
    38   32   36       1
    39   36   37       1
    40   36   38       1
    41   38   39       2
    42   38   40      am
    43   40   41       1
    44   41   42       1
    45   42   43       1
    46   43   44       2
    47   43   45      am
    48   45   46       1
    49   46   47       1
    50   47   48       1
    51    2   49       1
    52    7   50       1
    53    7   51       1
    54    9   52       1
    55   11   53       1
    56   12   54       1
    57   13   55       1
    58   14   56       1
    59   48   80       1
    60   47   79       1
    61   20   57       1
    62   22   58       1
    63   22   59       1
    64   47   78       1
    65   46   77       1
    66   33   60       1
    67   33   61       1
    68   34   62       1
    69   34   63       1
    70   34   64       1
    71   35   65       1
    72   35   66       1
    73   35   67       1
    74   36   68       1
    75   37   69       1
    76   40   70       1
    77   41   71       1
    78   41   72       1
    79   42   73       1
    80   42   74       1
    81   45   75       1
    82   46   76       1
@<TRIPOS>SUBSTRUCTURE
     1 COA402      1 GROUP             4 E     COA     0 **** COA E 402
