@<TRIPOS>MOLECULE
2xgm_LXN_2_ligand
   12    12     1     0     0
SMALL
NO_CHARGES


@<TRIPOS>ATOM
     1 OAB         15.8080    11.4280    23.3840 O.3          1 LXN1569   0.0000
     2 CAH         16.0470    11.6790    22.2040 C.2          1 LXN1569   0.0000
     3 CAJ         15.6290    10.7780    21.2190 C.2          1 LXN1569   0.0000
     4 OAD         15.0440     9.7450    21.5330 O.2          1 LXN1569   0.0000
     5 CAI         15.8760    11.0430    19.8730 C.2          1 LXN1569   0.0000
     6 OAC         15.5010    10.2480    19.0110 O.2          1 LXN1569   0.0000
     7 NAF         16.5630    12.2200    19.4990 N.am         1 LXN1569   0.0000
     8 CAG         16.9930    13.1210    20.4860 C.2          1 LXN1569   0.0000
     9 OAA         17.5870    14.1400    20.1410 O.2          1 LXN1569   0.0000
    10 NAE         16.7330    12.8680    21.8510 N.2          1 LXN1569   0.0000
    11 HAB         16.1006    12.0626    24.0994 H            1 LXN1569   0.0000
    12 HAF         16.7424    12.4106    18.5338 H            1 LXN1569   0.0000
@<TRIPOS>BOND
     1    1    2       1
     2    2    3       1
     3    2   10       2
     4    3    4       2
     5    3    5       1
     6    5    6       2
     7    5    7      am
     8    7    8      am
     9    8    9       2
    10    8   10       1
    11    1   11       1
    12    7   12       1
@<TRIPOS>SUBSTRUCTURE
     1 LXN1569     1 GROUP             4 B     LXN     0 **** LXN B1569
