@<TRIPOS>MOLECULE
3l7l_C2G_1_ligand
   51    52     1     0     0
SMALL
NO_CHARGES


@<TRIPOS>ATOM
     1 N1         -71.8140    81.3670     7.8020 N.am         1 C2G730   0.0000
     2 C2         -71.8220    82.4630     8.8870 C.2          1 C2G730   0.0000
     3 N3         -70.7730    82.4700     9.9530 N.am         1 C2G730   0.0000
     4 C4         -69.7140    81.4300     9.9900 C.2          1 C2G730   0.0000
     5 C5         -69.6990    80.3540     8.9350 C.2          1 C2G730   0.0000
     6 C6         -70.7590    80.3440     7.8620 C.3          1 C2G730   0.0000
     7 O2         -72.8020    83.4610     8.9120 O.2          1 C2G730   0.0000
     8 N4         -68.6940    81.4080    11.0210 N.pl3        1 C2G730   0.0000
     9 C1'        -72.8040    81.2650     6.7040 C.3          1 C2G730   0.0000
    10 C2'        -72.1830    81.6750     5.3520 C.3          1 C2G730   0.0000
    11 O2'        -73.0460    82.4780     4.5720 O.3          1 C2G730   0.0000
    12 C3'        -71.8120    80.3780     4.6590 C.3          1 C2G730   0.0000
    13 C4'        -72.7710    79.3360     5.2530 C.3          1 C2G730   0.0000
    14 O4'        -73.2210    79.8550     6.5520 O.3          1 C2G730   0.0000
    15 O3'        -71.8800    80.4520     3.2480 O.3          1 C2G730   0.0000
    16 C5'        -72.0830    77.9640     5.4410 C.3          1 C2G730   0.0000
    17 O5'        -70.6920    78.0560     5.6890 O.3          1 C2G730   0.0000
    18 PA         -69.9240    76.8380     6.5360 P.3          1 C2G730   0.0000
    19 O1A        -69.0190    77.4320     7.7870 O.co2        1 C2G730   0.0000
    20 O2A        -69.0660    76.0070     5.6780 O.co2        1 C2G730  -1.0000
    21 O3A        -71.1360    75.9140     7.1770 O.3          1 C2G730   0.0000
    22 PB         -71.8080    74.6420     6.3580 P.3          1 C2G730   0.0000
    23 O1B        -73.4090    74.5930     6.7790 O.co2        1 C2G730   0.0000
    24 O2B        -71.0980    73.4150     6.7420 O.co2        1 C2G730  -1.0000
    25 O3B        -71.7110    74.8340     4.7110 O.3          1 C2G730   0.0000
    26 O1G        -72.1020    73.6310     0.5890 O.3          1 C2G730   0.0000
    27 C1G        -71.0650    73.9270     1.4740 C.3          1 C2G730   0.0000
    28 C2G        -71.4970    73.3670     2.8330 C.3          1 C2G730   0.0000
    29 O2G        -72.8830    73.5520     2.9380 O.3          1 C2G730   0.0000
    30 C3G        -70.7620    74.1330     3.9470 C.3          1 C2G730   0.0000
    31 H1         -70.7850    83.1858    10.6512 H            1 C2G730   0.0000
    32 H2         -68.9893    79.6496     8.9463 H            1 C2G730   0.0000
    33 H3         -70.2742    80.3897     6.9886 H            1 C2G730   0.0000
    34 H4         -71.2265    79.4633     7.9380 H            1 C2G730   0.0000
    35 H5         -67.9946    80.6933    11.0172 H            1 C2G730   0.0000
    36 H6         -68.6902    82.1075    11.7356 H            1 C2G730   0.0000
    37 H1'        -73.5987    81.8380     6.9043 H            1 C2G730   0.0000
    38 H2'        -71.3449    82.1905     5.5308 H            1 C2G730   0.0000
    39 H9         -72.5949    82.7133     3.7111 H            1 C2G730   0.0000
    40 H3'        -70.8777    80.1347     4.9196 H            1 C2G730   0.0000
    41 H4'        -73.5601    79.2300     4.6479 H            1 C2G730   0.0000
    42 H12        -71.2507    81.1568     2.9205 H            1 C2G730   0.0000
    43 H5'1       -72.2209    77.4248     4.6102 H            1 C2G730   0.0000
    44 H5'2       -72.5120    77.4988     6.2153 H            1 C2G730   0.0000
    45 H1G        -71.7303    73.5093    -0.3313 H            1 C2G730   0.0000
    46 H1G1       -70.9300    74.9161     1.5328 H            1 C2G730   0.0000
    47 H1G2       -70.2164    73.4921     1.1728 H            1 C2G730   0.0000
    48 H2G        -71.2775    72.3928     2.8863 H            1 C2G730   0.0000
    49 H19        -73.0699    74.4408     3.3564 H            1 C2G730   0.0000
    50 H3G1       -70.2695    73.4877     4.5311 H            1 C2G730   0.0000
    51 H3G2       -70.1136    74.7773     3.5415 H            1 C2G730   0.0000
@<TRIPOS>BOND
     1    1    2      am
     2    1    6       1
     3    1    9       1
     4    2    3      am
     5    2    7       2
     6    3    4       1
     7    4    5       2
     8    4    8       1
     9    5    6       1
    10    9   10       1
    11    9   14       1
    12   10   11       1
    13   10   12       1
    14   12   13       1
    15   12   15       1
    16   13   14       1
    17   13   16       1
    18   16   17       1
    19   17   18       1
    20   18   19      ar
    21   18   20      ar
    22   18   21       1
    23   21   22       1
    24   22   23      ar
    25   22   24      ar
    26   22   25       1
    27   25   30       1
    28   26   27       1
    29   27   28       1
    30   28   29       1
    31   28   30       1
    32    3   31       1
    33    5   32       1
    34    6   33       1
    35    6   34       1
    36    8   35       1
    37    8   36       1
    38    9   37       1
    39   10   38       1
    40   11   39       1
    41   12   40       1
    42   13   41       1
    43   15   42       1
    44   16   43       1
    45   16   44       1
    46   30   51       1
    47   30   50       1
    48   26   45       1
    49   27   46       1
    50   27   47       1
    51   28   48       1
    52   29   49       1
@<TRIPOS>SUBSTRUCTURE
     1 C2G730      1 GROUP             4 D     C2G     0 **** C2G D 730
