@<TRIPOS>MOLECULE
2iyp_A2P_1_ligand
   38    40     1     0     0
SMALL
NO_CHARGES


@<TRIPOS>ATOM
     1 P1          28.1420    21.5250    93.9640 P.3          1 A2P1470   0.0000
     2 O1P         27.8450    22.5020    95.0750 O.co2        1 A2P1470   0.0000
     3 O2P         27.5720    21.8720    92.6090 O.co2        1 A2P1470  -1.0000
     4 O3P         29.5730    21.0450    93.9010 O.co2        1 A2P1470  -1.0000
     5 P2          20.5990    20.7930    92.9770 P.3          1 A2P1470   0.0000
     6 O4P         20.4280    22.0370    93.8290 O.co2        1 A2P1470   0.0000
     7 O5P         21.1970    21.0370    91.5960 O.co2        1 A2P1470  -1.0000
     8 O6P         19.3860    19.8760    92.9920 O.co2        1 A2P1470  -1.0000
     9 O5'         21.7020    19.9360    93.8070 O.3          1 A2P1470   0.0000
    10 C5'         22.9670    20.5140    94.1300 C.3          1 A2P1470   0.0000
    11 C4'         23.8690    19.6300    94.9910 C.3          1 A2P1470   0.0000
    12 O4'         24.2990    18.4320    94.3210 O.3          1 A2P1470   0.0000
    13 C3'         25.1290    20.4390    95.2390 C.3          1 A2P1470   0.0000
    14 O3'         25.7080    20.1320    96.5130 O.3          1 A2P1470   0.0000
    15 C2'         26.0390    19.9750    94.1290 C.3          1 A2P1470   0.0000
    16 O2'         27.3920    20.2010    94.4730 O.3          1 A2P1470   0.0000
    17 C1'         25.6870    18.5060    93.9770 C.3          1 A2P1470   0.0000
    18 N9          25.8550    18.0490    92.5820 N.pl3        1 A2P1470   0.0000
    19 C8          25.0610    18.4320    91.5700 C.2          1 A2P1470   0.0000
    20 N7          25.4390    17.8500    90.4140 N.2          1 A2P1470   0.0000
    21 C5          26.5000    17.0720    90.6740 C.ar         1 A2P1470   0.0000
    22 C6          27.3710    16.1780    89.8670 C.ar         1 A2P1470   0.0000
    23 N6          27.1400    16.0310    88.5340 N.pl3        1 A2P1470   0.0000
    24 N1          28.3870    15.5380    90.5110 N.ar         1 A2P1470   0.0000
    25 C2          28.5930    15.7010    91.8440 C.ar         1 A2P1470   0.0000
    26 N3          27.8280    16.4960    92.6330 N.ar         1 A2P1470   0.0000
    27 C4          26.7790    17.2000    92.1130 C.ar         1 A2P1470   0.0000
    28 H5'1        22.8028    21.3675    94.6245 H            1 A2P1470   0.0000
    29 H5'2        23.4473    20.7110    93.2753 H            1 A2P1470   0.0000
    30 H4'         23.4194    19.4065    95.8558 H            1 A2P1470   0.0000
    31 H3'         24.9434    21.4185    95.1600 H            1 A2P1470   0.0000
    32 H5          26.6991    20.2567    96.4674 H            1 A2P1470   0.0000
    33 H2'         25.8188    20.4641    93.2850 H            1 A2P1470   0.0000
    34 H1'         26.2344    17.9464    94.5993 H            1 A2P1470   0.0000
    35 H8          24.2918    19.0645    91.6612 H            1 A2P1470   0.0000
    36 H9          27.7244    15.4302    87.9885 H            1 A2P1470   0.0000
    37 H10         26.3859    16.5238    88.0999 H            1 A2P1470   0.0000
    38 H11         29.3520    15.2066    92.2676 H            1 A2P1470   0.0000
@<TRIPOS>BOND
     1    1    2      ar
     2    1    3      ar
     3    1    4      ar
     4    1   16       1
     5    5    6      ar
     6    5    7      ar
     7    5    8      ar
     8    5    9       1
     9    9   10       1
    10   10   11       1
    11   11   12       1
    12   11   13       1
    13   12   17       1
    14   13   14       1
    15   13   15       1
    16   15   16       1
    17   15   17       1
    18   17   18       1
    19   18   19       1
    20   18   27       1
    21   19   20       2
    22   20   21       1
    23   21   22      ar
    24   21   27      ar
    25   22   23       1
    26   22   24      ar
    27   24   25      ar
    28   25   26      ar
    29   26   27      ar
    30   25   38       1
    31   23   37       1
    32   23   36       1
    33   19   35       1
    34   10   28       1
    35   10   29       1
    36   11   30       1
    37   13   31       1
    38   14   32       1
    39   15   33       1
    40   17   34       1
@<TRIPOS>SUBSTRUCTURE
     1 A2P1470     1 GROUP             4 B     A2P     0 **** A2P B1470
