@<TRIPOS>MOLECULE
4qnq_1XJ_12_ligand
  124   130     1     0     0
SMALL
NO_CHARGES


@<TRIPOS>ATOM
     1 C4          45.4390   -50.4340   -15.3320 C.ar         1 1XJ301   0.0000
     2 C5          47.0470   -52.1820   -15.9020 C.ar         1 1XJ301   0.0000
     3 C6          44.1300   -56.3550   -24.1950 C.ar         1 1XJ301   0.0000
     4 C7          45.4770   -57.8730   -22.8620 C.ar         1 1XJ301   0.0000
     5 C8          43.8470   -55.6740   -23.0050 C.ar         1 1XJ301   0.0000
     6 C10         47.4220   -57.3240   -29.2660 C.ar         1 1XJ301   0.0000
     7 C13         46.8930   -58.2920   -28.4090 C.ar         1 1XJ301   0.0000
     8 C15         47.9490   -51.2130   -16.2960 C.ar         1 1XJ301   0.0000
     9 C17         45.8260   -51.7630   -15.4020 C.ar         1 1XJ301   0.0000
    10 C20         48.7350   -56.9540   -29.0660 C.ar         1 1XJ301   0.0000
    11 C21         48.2400   -53.6210   -27.4020 C.ar         1 1XJ301   0.0000
    12 C22         47.6730   -58.8280   -27.3910 C.ar         1 1XJ301   0.0000
    13 C24         47.5630   -49.8830   -16.1830 C.ar         1 1XJ301   0.0000
    14 C26         43.8860   -53.6410   -15.6470 C.3          1 1XJ301   0.0000
    15 C28         45.1440   -52.7370   -13.6270 C.3          1 1XJ301   0.0000
    16 C1          47.9860   -54.8810   -24.9410 C.ar         1 1XJ301   0.0000
    17 C2          46.9470   -54.9150   -25.8520 C.ar         1 1XJ301   0.0000
    18 C3          49.1460   -54.1950   -25.2650 C.ar         1 1XJ301   0.0000
    19 C9          45.1660   -57.1830   -21.6810 C.ar         1 1XJ301   0.0000
    20 C11         47.0760   -54.2880   -27.0760 C.ar         1 1XJ301   0.0000
    21 C12         49.2820   -53.5640   -26.5010 C.ar         1 1XJ301   0.0000
    22 C14         46.3380   -49.4550   -15.7090 C.ar         1 1XJ301   0.0000
    23 C16         48.9690   -58.4860   -27.1550 C.ar         1 1XJ301   0.0000
    24 C18         44.9670   -57.4690   -24.0920 C.ar         1 1XJ301   0.0000
    25 C19         44.3390   -56.0670   -21.7310 C.ar         1 1XJ301   0.0000
    26 C23         49.4630   -57.5270   -28.0150 C.ar         1 1XJ301   0.0000
    27 C25         44.8570   -52.7780   -15.0500 C.3          1 1XJ301   0.0000
    28 C27         45.3640   -58.2730   -25.2760 C.2          1 1XJ301   0.0000
    29 C29         42.7140   -53.9880   -14.7960 C.3          1 1XJ301   0.0000
    30 C30         43.9280   -53.2330   -12.8320 C.3          1 1XJ301   0.0000
    31 C31         44.2010   -55.9430   -19.2670 C.3          1 1XJ301   0.0000
    32 C32         43.0260   -54.2930   -20.6570 C.3          1 1XJ301   0.0000
    33 C33         43.7450   -55.1660   -18.0500 C.3          1 1XJ301   0.0000
    34 C34         42.8950   -53.3870   -19.4780 C.3          1 1XJ301   0.0000
    35 C35         49.4200   -51.8940   -34.4420 C.3          1 1XJ301   0.0000
    36 C36         51.4110   -53.3110   -33.9310 C.3          1 1XJ301   0.0000
    37 C37         50.3890   -50.8750   -34.9730 C.3          1 1XJ301   0.0000
    38 C38         52.2270   -52.2310   -34.5400 C.3          1 1XJ301   0.0000
    39 C39         43.2740   -54.4790   -13.4750 C.3          1 1XJ301   0.0000
    40 C40         44.2990   -55.5410   -13.7180 C.3          1 1XJ301   0.0000
    41 C41         42.1640   -55.0370   -12.6520 C.3          1 1XJ301   0.0000
    42 C42         43.4600   -53.0580   -16.9840 C.3          1 1XJ301   0.0000
    43 C43         49.6330   -54.2920   -31.5290 C.3          1 1XJ301   0.0000
    44 C44         49.3160   -53.8250   -32.9020 C.3          1 1XJ301   0.0000
    45 C45         47.6550   -54.0660   -30.0590 C.3          1 1XJ301   0.0000
    46 C46         48.6240   -54.9810   -30.6860 C.3          1 1XJ301   0.0000
    47 C47         52.0410   -58.2620   -28.8010 C.3          1 1XJ301   0.0000
    48 N48         44.0020   -55.3080   -20.5380 N.pl3        1 1XJ301   0.0000
    49 N51         49.3050   -55.9750   -29.9230 N.pl3        1 1XJ301   0.0000
    50 N52         46.4540   -59.1050   -25.1200 N.am         1 1XJ301   0.0000
    51 N49         43.6500   -53.7170   -18.2830 N.4          1 1XJ301   1.0000
    52 N50         50.1050   -52.7980   -33.5280 N.4          1 1XJ301   1.0000
    53 O53         44.8050   -58.2740   -26.3490 O.2          1 1XJ301   0.0000
    54 O54         51.5790   -55.7920   -28.0550 O.2          1 1XJ301   0.0000
    55 O55         51.6200   -57.5300   -26.3840 O.2          1 1XJ301   0.0000
    56 O56         48.1310   -60.7420   -25.8660 O.2          1 1XJ301   0.0000
    57 O57         46.0170   -60.8670   -26.9260 O.2          1 1XJ301   0.0000
    58 O58         51.4560   -51.5770   -35.5120 O.3          1 1XJ301   0.0000
    59 F59         53.3590   -58.1060   -28.6960 F            1 1XJ301   0.0000
    60 F60         51.7990   -59.5550   -28.5050 F            1 1XJ301   0.0000
    61 F61         51.7000   -58.0230   -30.0730 F            1 1XJ301   0.0000
    62 S62         48.3510   -52.8520   -28.9610 S.3          1 1XJ301   0.0000
    63 S63         51.1630   -57.1350   -27.7130 S.o2         1 1XJ301   0.0000
    64 S64         47.0140   -59.9900   -26.3060 S.o2         1 1XJ301   0.0000
    65 CL6         48.6640   -48.6590   -16.6430 Cl           1 1XJ301   0.0000
    66 H1          44.5236   -50.1876   -15.0137 H            1 1XJ301   0.0000
    67 H2          47.2687   -53.1543   -15.9755 H            1 1XJ301   0.0000
    68 H3          43.7528   -56.0596   -25.0728 H            1 1XJ301   0.0000
    69 H4          46.0775   -58.6715   -22.8191 H            1 1XJ301   0.0000
    70 H5          43.2641   -54.8630   -23.0544 H            1 1XJ301   0.0000
    71 H6          46.8712   -56.9163   -29.9943 H            1 1XJ301   0.0000
    72 H7          45.9493   -58.6006   -28.5284 H            1 1XJ301   0.0000
    73 H8          48.8505   -51.4606   -16.6510 H            1 1XJ301   0.0000
    74 H9          44.3554   -54.5007   -15.8484 H            1 1XJ301   0.0000
    75 H10         45.3543   -51.7970   -13.3585 H            1 1XJ301   0.0000
    76 H11         45.9298   -53.3235   -13.4306 H            1 1XJ301   0.0000
    77 H12         47.9018   -55.3454   -24.0594 H            1 1XJ301   0.0000
    78 H13         46.0997   -55.3948   -25.6243 H            1 1XJ301   0.0000
    79 H14         49.8950   -54.1520   -24.6038 H            1 1XJ301   0.0000
    80 H15         45.5380   -57.4930   -20.8061 H            1 1XJ301   0.0000
    81 H16         46.3208   -54.3174   -27.7308 H            1 1XJ301   0.0000
    82 H17         50.1243   -53.0765   -26.7309 H            1 1XJ301   0.0000
    83 H18         46.1127   -48.4830   -15.6420 H            1 1XJ301   0.0000
    84 H19         49.5149   -58.8937   -26.4230 H            1 1XJ301   0.0000
    85 H20         44.1587   -52.0722   -14.9310 H            1 1XJ301   0.0000
    86 H21         42.1720   -54.7073   -15.2306 H            1 1XJ301   0.0000
    87 H22         42.1414   -53.1812   -14.6504 H            1 1XJ301   0.0000
    88 H23         43.2499   -52.4992   -12.7906 H            1 1XJ301   0.0000
    89 H24         44.2231   -53.4668   -11.9056 H            1 1XJ301   0.0000
    90 H25         43.7036   -56.8104   -19.2786 H            1 1XJ301   0.0000
    91 H26         45.1797   -56.1213   -19.1655 H            1 1XJ301   0.0000
    92 H27         43.2593   -53.7328   -21.4518 H            1 1XJ301   0.0000
    93 H28         42.1407   -54.7329   -20.8075 H            1 1XJ301   0.0000
    94 H29         44.3976   -55.3257   -17.3093 H            1 1XJ301   0.0000
    95 H30         42.8435   -55.5030   -17.7784 H            1 1XJ301   0.0000
    96 H31         41.9281   -53.3666   -19.2236 H            1 1XJ301   0.0000
    97 H32         43.1823   -52.4746   -19.7697 H            1 1XJ301   0.0000
    98 H33         49.0390   -52.4181   -35.2037 H            1 1XJ301   0.0000
    99 H34         48.6811   -51.4275   -33.9557 H            1 1XJ301   0.0000
   100 H35         51.8862   -53.6695   -33.1275 H            1 1XJ301   0.0000
   101 H36         51.2849   -54.0447   -34.5986 H            1 1XJ301   0.0000
   102 H37         50.7060   -50.2830   -34.2320 H            1 1XJ301   0.0000
   103 H38         49.9509   -50.3192   -35.6795 H            1 1XJ301   0.0000
   104 H39         53.0418   -52.6245   -34.9658 H            1 1XJ301   0.0000
   105 H40         52.5021   -51.5785   -33.8339 H            1 1XJ301   0.0000
   106 H41         44.6632   -55.8593   -12.8427 H            1 1XJ301   0.0000
   107 H42         43.8766   -56.3075   -14.2018 H            1 1XJ301   0.0000
   108 H43         45.0425   -55.1662   -14.2719 H            1 1XJ301   0.0000
   109 H44         42.5274   -55.3626   -11.7791 H            1 1XJ301   0.0000
   110 H45         41.4826   -54.3246   -12.4845 H            1 1XJ301   0.0000
   111 H46         41.7372   -55.7983   -13.1402 H            1 1XJ301   0.0000
   112 H47         43.9343   -52.1806   -17.0569 H            1 1XJ301   0.0000
   113 H48         42.4758   -52.8994   -16.9056 H            1 1XJ301   0.0000
   114 H49         49.9221   -53.4832   -31.0168 H            1 1XJ301   0.0000
   115 H50         50.4034   -54.9233   -31.6178 H            1 1XJ301   0.0000
   116 H51         48.3747   -53.4882   -32.8791 H            1 1XJ301   0.0000
   117 H52         49.3684   -54.6277   -33.4961 H            1 1XJ301   0.0000
   118 H53         47.0039   -54.6169   -29.5368 H            1 1XJ301   0.0000
   119 H54         47.1720   -53.5814   -30.7883 H            1 1XJ301   0.0000
   120 H55         48.0776   -55.5058   -31.3387 H            1 1XJ301   0.0000
   121 H56         50.3020   -55.9838   -30.0005 H            1 1XJ301   0.0000
   122 H57         46.9045   -59.1500   -24.2284 H            1 1XJ301   0.0000
   123 H58         44.5859   -53.4655   -18.5298 H            1 1XJ301   0.0000
   124 H59         50.3333   -52.1998   -32.7599 H            1 1XJ301   0.0000
@<TRIPOS>BOND
     1    1    9      ar
     2    1   22      ar
     3    2    8      ar
     4    2    9      ar
     5    3    5      ar
     6    3   24      ar
     7    4   19      ar
     8    4   24      ar
     9    5   25      ar
    10    6    7      ar
    11    6   10      ar
    12    7   12      ar
    13    8   13      ar
    14    9   27       1
    15   10   26      ar
    16   10   49       1
    17   11   20      ar
    18   11   21      ar
    19   11   62       1
    20   12   23      ar
    21   12   64       1
    22   13   22      ar
    23   13   65       1
    24   14   27       1
    25   14   29       1
    26   14   42       1
    27   15   27       1
    28   15   30       1
    29   16   17      ar
    30   16   18      ar
    31   17   20      ar
    32   18   21      ar
    33   19   25      ar
    34   23   26      ar
    35   24   28       1
    36   25   48       1
    37   26   63       1
    38   28   50      am
    39   28   53       2
    40   29   39       1
    41   30   39       1
    42   31   33       1
    43   31   48       1
    44   32   34       1
    45   32   48       1
    46   33   51       1
    47   34   51       1
    48   35   37       1
    49   35   52       1
    50   36   38       1
    51   36   52       1
    52   37   58       1
    53   38   58       1
    54   39   40       1
    55   39   41       1
    56   42   51       1
    57   43   44       1
    58   43   46       1
    59   44   52       1
    60   45   46       1
    61   45   62       1
    62   46   49       1
    63   47   59       1
    64   47   60       1
    65   47   61       1
    66   47   63       1
    67   50   64       1
    68   54   63       2
    69   55   63       2
    70   56   64       2
    71   57   64       2
    72    1   66       1
    73    2   67       1
    74    3   68       1
    75    4   69       1
    76    5   70       1
    77    6   71       1
    78    7   72       1
    79    8   73       1
    80   14   74       1
    81   15   75       1
    82   15   76       1
    83   16   77       1
    84   17   78       1
    85   18   79       1
    86   19   80       1
    87   20   81       1
    88   21   82       1
    89   22   83       1
    90   23   84       1
    91   27   85       1
    92   29   86       1
    93   29   87       1
    94   30   88       1
    95   30   89       1
    96   31   90       1
    97   31   91       1
    98   32   92       1
    99   32   93       1
   100   33   94       1
   101   33   95       1
   102   34   96       1
   103   34   97       1
   104   35   98       1
   105   35   99       1
   106   36  100       1
   107   36  101       1
   108   37  102       1
   109   37  103       1
   110   38  104       1
   111   38  105       1
   112   40  106       1
   113   40  107       1
   114   40  108       1
   115   41  109       1
   116   41  110       1
   117   41  111       1
   118   42  112       1
   119   42  113       1
   120   43  114       1
   121   43  115       1
   122   44  116       1
   123   44  117       1
   124   45  118       1
   125   45  119       1
   126   46  120       1
   127   49  121       1
   128   50  122       1
   129   51  123       1
   130   52  124       1
@<TRIPOS>SUBSTRUCTURE
     1 1XJ301      1 GROUP             4 L     1XJ     0 **** 1XJ L 301
