@<TRIPOS>MOLECULE
5ebu_FMN_4_ligand
   50    52     1     0     0
SMALL
NO_CHARGES


@<TRIPOS>ATOM
     1 N1          -9.1120    54.4500    34.6110 N.2          1 FMN400   0.0000
     2 C2          -8.9640    55.7280    34.2090 C.2          1 FMN400   0.0000
     3 O2          -7.8700    56.0340    33.6590 O.2          1 FMN400   0.0000
     4 N3          -9.9630    56.6360    34.3960 N.pl3        1 FMN400   0.0000
     5 C4         -11.1540    56.3160    34.9450 C.2          1 FMN400   0.0000
     6 O4         -12.0690    57.1590    35.0890 O.2          1 FMN400   0.0000
     7 C4A        -11.3690    54.9290    35.3700 C.2          1 FMN400   0.0000
     8 N5         -12.5030    54.5460    35.9480 N.2          1 FMN400   0.0000
     9 C5A        -12.6370    53.2670    36.3600 C.ar         1 FMN400   0.0000
    10 C6         -13.8290    52.8810    36.9470 C.ar         1 FMN400   0.0000
    11 C7         -13.9950    51.5780    37.3800 C.ar         1 FMN400   0.0000
    12 C7M        -15.3000    51.2200    38.0140 C.3          1 FMN400   0.0000
    13 C8         -12.8890    50.5860    37.2180 C.ar         1 FMN400   0.0000
    14 C8M        -13.0140    49.1620    37.6610 C.3          1 FMN400   0.0000
    15 C9         -11.7100    50.9520    36.6130 C.ar         1 FMN400   0.0000
    16 C9A        -11.5410    52.2540    36.1750 C.ar         1 FMN400   0.0000
    17 N10        -10.3440    52.6720    35.5790 N.pl3        1 FMN400   0.0000
    18 C10        -10.2470    54.0060    35.1760 C.2          1 FMN400   0.0000
    19 C1'         -9.1900    51.7930    35.3650 C.3          1 FMN400   0.0000
    20 C2'         -8.2300    51.8620    36.5560 C.3          1 FMN400   0.0000
    21 O2'         -7.4060    53.0540    36.5800 O.3          1 FMN400   0.0000
    22 C3'         -7.3200    50.6400    36.5300 C.3          1 FMN400   0.0000
    23 O3'         -6.6540    50.6380    35.2500 O.3          1 FMN400   0.0000
    24 C4'         -8.1160    49.3440    36.8340 C.3          1 FMN400   0.0000
    25 O4'         -8.9220    49.4940    38.0070 O.3          1 FMN400   0.0000
    26 C5'         -7.1970    48.1610    37.0440 C.3          1 FMN400   0.0000
    27 O5'         -7.9970    47.0060    37.2300 O.3          1 FMN400   0.0000
    28 P           -8.0550    46.3090    38.6830 P.3          1 FMN400   0.0000
    29 O1P         -8.3200    47.4210    39.6740 O.co2        1 FMN400   0.0000
    30 O2P         -9.1430    45.2960    38.5090 O.co2        1 FMN400  -1.0000
    31 O3P         -6.7410    45.6870    38.9870 O.co2        1 FMN400  -1.0000
    32 H1          -9.8066    57.5825    34.1136 H            1 FMN400   0.0000
    33 H2         -14.5698    53.5435    37.0581 H            1 FMN400   0.0000
    34 H7M1       -15.2883    50.2559    38.2794 H            1 FMN400   0.0000
    35 H7M2       -15.4433    51.7872    38.8250 H            1 FMN400   0.0000
    36 H7M3       -16.0416    51.3773    37.3619 H            1 FMN400   0.0000
    37 H8M1       -12.1641    48.6747    37.4605 H            1 FMN400   0.0000
    38 H8M2       -13.1906    49.1333    38.6449 H            1 FMN400   0.0000
    39 H8M3       -13.7709    48.7265    37.1737 H            1 FMN400   0.0000
    40 H9         -10.9786    50.2812    36.4901 H            1 FMN400   0.0000
    41 H1'1        -8.7077    52.0799    34.5373 H            1 FMN400   0.0000
    42 H1'2        -9.5099    50.8519    35.2551 H            1 FMN400   0.0000
    43 H2'         -8.7696    51.8351    37.3975 H            1 FMN400   0.0000
    44 H13         -7.8758    53.7737    37.0911 H            1 FMN400   0.0000
    45 H3'         -6.6265    50.7533    37.2414 H            1 FMN400   0.0000
    46 H15         -5.6649    50.6880    35.3888 H            1 FMN400   0.0000
    47 H4'         -8.7155    49.1484    36.0579 H            1 FMN400   0.0000
    48 H17         -8.6482    48.8154    38.6886 H            1 FMN400   0.0000
    49 H5'1        -6.6289    48.3131    37.8528 H            1 FMN400   0.0000
    50 H5'2        -6.6109    48.0413    36.2427 H            1 FMN400   0.0000
@<TRIPOS>BOND
     1    1    2       1
     2    1   18       2
     3    2    3       2
     4    2    4       1
     5    4    5       1
     6    5    6       2
     7    5    7       1
     8    7    8       2
     9    7   18       1
    10    8    9       1
    11    9   10      ar
    12    9   16      ar
    13   10   11      ar
    14   11   12       1
    15   11   13      ar
    16   13   14       1
    17   13   15      ar
    18   15   16      ar
    19   16   17       1
    20   17   18       1
    21   17   19       1
    22   19   20       1
    23   20   21       1
    24   20   22       1
    25   22   23       1
    26   22   24       1
    27   24   25       1
    28   24   26       1
    29   26   27       1
    30   27   28       1
    31   28   29      ar
    32   28   30      ar
    33   28   31      ar
    34    4   32       1
    35   10   33       1
    36   12   34       1
    37   12   35       1
    38   12   36       1
    39   14   37       1
    40   14   38       1
    41   14   39       1
    42   15   40       1
    43   19   41       1
    44   19   42       1
    45   20   43       1
    46   21   44       1
    47   22   45       1
    48   23   46       1
    49   24   47       1
    50   25   48       1
    51   26   49       1
    52   26   50       1
@<TRIPOS>SUBSTRUCTURE
     1 FMN400      1 GROUP             4 D     FMN     0 **** FMN D 400
