@<TRIPOS>MOLECULE
4mit_GTP_3_ligand
   45    47     1     0     0
SMALL
NO_CHARGES


@<TRIPOS>ATOM
     1 PG          69.3960   -83.3620    74.1480 P.3          1 GTP201   0.0000
     2 O1G         70.3950   -83.6670    75.2440 O.co2        1 GTP201   0.0000
     3 O2G         70.0860   -82.3370    73.2770 O.co2        1 GTP201  -1.0000
     4 O3G         68.0740   -82.8780    74.6910 O.co2        1 GTP201  -1.0000
     5 O3B         69.0830   -84.6830    73.2790 O.3          1 GTP201   0.0000
     6 PB          68.0810   -85.8790    73.6610 P.3          1 GTP201   0.0000
     7 O1B         66.7930   -85.5090    74.3560 O.co2        1 GTP201   0.0000
     8 O2B         68.8680   -86.8560    74.5020 O.co2        1 GTP201  -1.0000
     9 O3A         67.7180   -86.4880    72.2040 O.3          1 GTP201   0.0000
    10 PA          66.2200   -86.6950    71.6200 P.3          1 GTP201   0.0000
    11 O1A         65.6090   -85.3820    71.1740 O.co2        1 GTP201   0.0000
    12 O2A         65.2540   -87.4500    72.5190 O.co2        1 GTP201  -1.0000
    13 O5'         66.5030   -87.5150    70.2640 O.3          1 GTP201   0.0000
    14 C5'         67.7770   -87.5300    69.6560 C.3          1 GTP201   0.0000
    15 C4'         67.5850   -87.9100    68.1850 C.3          1 GTP201   0.0000
    16 O4'         67.6150   -89.3290    68.0520 O.3          1 GTP201   0.0000
    17 C3'         66.2270   -87.4410    67.7040 C.3          1 GTP201   0.0000
    18 O3'         66.3780   -86.9160    66.4110 O.3          1 GTP201   0.0000
    19 C2'         65.3780   -88.6960    67.6350 C.3          1 GTP201   0.0000
    20 O2'         64.5400   -88.6670    66.5060 O.3          1 GTP201   0.0000
    21 C1'         66.3730   -89.8530    67.6160 C.3          1 GTP201   0.0000
    22 N9          65.9270   -90.9410    68.5190 N.pl3        1 GTP201   0.0000
    23 C8          65.6410   -90.8640    69.8610 C.2          1 GTP201   0.0000
    24 N7          65.2620   -92.0900    70.3030 N.2          1 GTP201   1.0000
    25 C5          65.3070   -92.9580    69.2730 C.2          1 GTP201   0.0000
    26 C6          65.0200   -94.3130    69.1730 C.2          1 GTP201   0.0000
    27 O6          64.6440   -94.9510    70.1590 O.2          1 GTP201   0.0000
    28 N1          65.1590   -94.9350    67.9540 N.pl3        1 GTP201   0.0000
    29 C2          65.5760   -94.2180    66.8510 C.2          1 GTP201   0.0000
    30 N2          65.7060   -94.8030    65.6640 N.pl3        1 GTP201   0.0000
    31 N3          65.8560   -92.8800    66.9590 N.2          1 GTP201   0.0000
    32 C4          65.7200   -92.2510    68.1490 C.2          1 GTP201   0.0000
    33 H5'1        68.3625   -88.2029    70.1082 H            1 GTP201   0.0000
    34 H5'2        68.1968   -86.6248    69.7221 H            1 GTP201   0.0000
    35 H4'         68.3064   -87.4985    67.6280 H            1 GTP201   0.0000
    36 H3'         65.8317   -86.7668    68.3278 H            1 GTP201   0.0000
    37 H5          67.1304   -87.3837    65.9471 H            1 GTP201   0.0000
    38 H2'         64.8163   -88.7588    68.4600 H            1 GTP201   0.0000
    39 H7          64.6935   -87.8190    65.9987 H            1 GTP201   0.0000
    40 H1'         66.4638   -90.2043    66.6841 H            1 GTP201   0.0000
    41 H9          65.7022   -90.0380    70.4214 H            1 GTP201   0.0000
    42 H10         64.9571   -95.9105    67.8667 H            1 GTP201   0.0000
    43 H11         66.0092   -94.2697    64.8743 H            1 GTP201   0.0000
    44 H12         65.5005   -95.7762    65.5610 H            1 GTP201   0.0000
    45 H13         64.9932   -92.3129    71.2401 H            1 GTP201   0.0000
@<TRIPOS>BOND
     1    1    2      ar
     2    1    3      ar
     3    1    4      ar
     4    1    5       1
     5    5    6       1
     6    6    7      ar
     7    6    8      ar
     8    6    9       1
     9    9   10       1
    10   10   11      ar
    11   10   12      ar
    12   10   13       1
    13   13   14       1
    14   14   15       1
    15   15   16       1
    16   15   17       1
    17   16   21       1
    18   17   18       1
    19   17   19       1
    20   19   20       1
    21   19   21       1
    22   21   22       1
    23   22   23       1
    24   22   32       1
    25   23   24       2
    26   24   25       1
    27   25   26       1
    28   25   32       2
    29   26   27       2
    30   26   28       1
    31   28   29       1
    32   29   30       1
    33   29   31       2
    34   31   32       1
    35   30   44       1
    36   30   43       1
    37   28   42       1
    38   23   41       1
    39   14   33       1
    40   14   34       1
    41   15   35       1
    42   17   36       1
    43   18   37       1
    44   19   38       1
    45   20   39       1
    46   21   40       1
    47   24   45       1
@<TRIPOS>SUBSTRUCTURE
     1 GTP201      1 GROUP             4 C     GTP     0 **** GTP C 201
