@<TRIPOS>MOLECULE
1xiu_REA_1_ligand
   53    53     1     0     0
SMALL
NO_CHARGES


@<TRIPOS>ATOM
     1 C1          36.5930    39.4000    87.4700 C.3          1 9CR201   0.0000
     2 C2          38.0100    39.9070    87.7520 C.3          1 9CR201   0.0000
     3 C3          38.1420    41.3470    88.2840 C.3          1 9CR201   0.0000
     4 C4          37.1750    41.7520    89.3930 C.3          1 9CR201   0.0000
     5 C5          35.7880    41.1930    89.1790 C.2          1 9CR201   0.0000
     6 C6          35.5460    40.0320    88.3740 C.2          1 9CR201   0.0000
     7 C7          34.2900    39.2640    88.3280 C.3          1 9CR201   0.0000
     8 C8          33.5160    39.0000    89.5320 C.3          1 9CR201   0.0000
     9 C9          32.1660    38.4670    89.3590 C.2          1 9CR201   0.0000
    10 C10         31.6140    37.6440    90.3730 C.2          1 9CR201   0.0000
    11 C11         32.2800    37.6640    91.6550 C.3          1 9CR201   0.0000
    12 C12         31.4430    37.2800    92.7950 C.2          1 9CR201   0.0000
    13 C13         32.0360    36.8750    94.0320 C.2          1 9CR201   0.0000
    14 C14         31.0960    36.3140    94.9000 C.3          1 9CR201   0.0000
    15 C15         31.0560    36.5010    96.3680 C.2          1 9CR201   0.0000
    16 C16         36.5190    37.8820    87.6570 C.3          1 9CR201   0.0000
    17 C17         36.1360    39.7270    86.0580 C.3          1 9CR201   0.0000
    18 C18         34.7070    41.9350    89.9330 C.3          1 9CR201   0.0000
    19 C19         31.2960    38.7080    88.1570 C.3          1 9CR201   0.0000
    20 C20         33.5180    37.0610    94.3010 C.3          1 9CR201   0.0000
    21 O1          29.9780    36.9060    96.9630 O.co2        1 9CR201   0.0000
    22 O2          32.1490    36.2240    96.9500 O.co2        1 9CR201  -1.0000
    23 H1          38.5262    39.8522    86.8973 H            1 9CR201   0.0000
    24 H2          38.4203    39.2960    88.4290 H            1 9CR201   0.0000
    25 H3          38.0005    41.9698    87.5145 H            1 9CR201   0.0000
    26 H4          39.0716    41.4574    88.6356 H            1 9CR201   0.0000
    27 H5          37.1184    42.7500    89.4213 H            1 9CR201   0.0000
    28 H6          37.5268    41.4132    90.2656 H            1 9CR201   0.0000
    29 H7          34.5188    38.3719    87.9384 H            1 9CR201   0.0000
    30 H8          33.6821    39.7544    87.7036 H            1 9CR201   0.0000
    31 H9          33.4365    39.8619    90.0328 H            1 9CR201   0.0000
    32 H10         34.0306    38.3416    90.0813 H            1 9CR201   0.0000
    33 H11         30.8054    37.0788    90.2093 H            1 9CR201   0.0000
    34 H12         32.6156    38.5922    91.8156 H            1 9CR201   0.0000
    35 H13         33.0541    37.0324    91.6121 H            1 9CR201   0.0000
    36 H14         30.4471    37.3013    92.7072 H            1 9CR201   0.0000
    37 H15         31.1667    35.3261    94.7621 H            1 9CR201   0.0000
    38 H16         30.2082    36.6340    94.5694 H            1 9CR201   0.0000
    39 H17         35.5883    37.5680    87.4692 H            1 9CR201   0.0000
    40 H18         37.1546    37.4370    87.0261 H            1 9CR201   0.0000
    41 H19         36.7657    37.6496    88.5978 H            1 9CR201   0.0000
    42 H20         35.2091    39.3786    85.9186 H            1 9CR201   0.0000
    43 H21         36.1428    40.7183    85.9266 H            1 9CR201   0.0000
    44 H22         36.7554    39.2992    85.3997 H            1 9CR201   0.0000
    45 H23         33.8201    41.5128    89.7455 H            1 9CR201   0.0000
    46 H24         34.8957    41.8924    90.9141 H            1 9CR201   0.0000
    47 H25         34.6905    42.8903    89.6379 H            1 9CR201   0.0000
    48 H26         30.4219    38.2377    88.2785 H            1 9CR201   0.0000
    49 H27         31.1349    39.6895    88.0535 H            1 9CR201   0.0000
    50 H28         31.7525    38.3571    87.3394 H            1 9CR201   0.0000
    51 H29         33.7367    36.7176    95.2144 H            1 9CR201   0.0000
    52 H30         34.0466    36.5552    93.6193 H            1 9CR201   0.0000
    53 H31         33.7473    38.0328    94.2466 H            1 9CR201   0.0000
@<TRIPOS>BOND
     1    1    2       1
     2    1    6       1
     3    1   16       1
     4    1   17       1
     5    2    3       1
     6    3    4       1
     7    4    5       1
     8    5    6       2
     9    5   18       1
    10    6    7       1
    11    7    8       1
    12    8    9       1
    13    9   10       2
    14    9   19       1
    15   10   11       1
    16   11   12       1
    17   12   13       2
    18   13   14       1
    19   13   20       1
    20   14   15       1
    21   15   21      ar
    22   15   22      ar
    23    2   23       1
    24    2   24       1
    25    3   25       1
    26    3   26       1
    27    4   27       1
    28    4   28       1
    29    7   29       1
    30    7   30       1
    31    8   31       1
    32    8   32       1
    33   10   33       1
    34   11   34       1
    35   11   35       1
    36   12   36       1
    37   14   37       1
    38   14   38       1
    39   16   39       1
    40   16   40       1
    41   16   41       1
    42   17   42       1
    43   17   43       1
    44   17   44       1
    45   18   45       1
    46   18   46       1
    47   18   47       1
    48   19   48       1
    49   19   49       1
    50   19   50       1
    51   20   51       1
    52   20   52       1
    53   20   53       1
@<TRIPOS>SUBSTRUCTURE
     1 9CR201      1 GROUP             4 A     9CR     0 **** 9CR A 201
