@<TRIPOS>MOLECULE
./coach420/1fcv/ligand.pdb
 53 56 0 0 0
SMALL
GASTEIGER

@<TRIPOS>ATOM
      1  C1         8.4330   31.1160  -13.2840 C.3   401  GCU401      0.2699
      2  C2         9.3230   32.3570  -13.3430 C.3   401  GCU401      0.2406
      3  C3         9.2770   33.0500  -14.6830 C.3   401  GCU401      0.2203
      4  C4         9.4940   32.0500  -15.8080 C.3   401  GCU401      0.2229
      5  C5         8.6470   30.7900  -15.5690 C.3   401  GCU401      0.2529
      6  C6         8.8300   29.7230  -16.5790 C.2   401  GCU401      0.3941
      7  O2         8.9470   33.2800  -12.3330 O.3   401  GCU401     -0.2149
      8  O3        10.3080   34.0450  -14.7900 O.3   401  GCU401     -0.2174
      9  O4         9.0280   32.6720  -17.0100 O.3   401  GCU401     -0.2171
     10  O5         8.9240   30.2350  -14.2960 O.3   401  GCU401     -0.3169
     11  O6A        8.7860   28.5580  -16.1300 O.co2 401  GCU401     -0.2429
     12  O6B        8.9740   30.2290  -17.7120 O.co2 401  GCU401     -0.2429
     13  C1         6.0060   29.5500   -9.5800 C.3   402  NAG402      0.2585
     14  C2         6.8170   30.5040  -10.4620 C.3   402  NAG402      0.1810
     15  C3         7.6040   29.7200  -11.4980 C.3   402  NAG402      0.1754
     16  C4         8.4260   28.6230  -10.8060 C.3   402  NAG402      0.2104
     17  C5         7.5580   27.7570   -9.9130 C.3   402  NAG402      0.1833
     18  C6         8.3090   26.7210   -9.1130 C.3   402  NAG402      0.2142
     19  C7         6.0440   32.8490  -10.7750 C.2   402  NAG402      0.2420
     20  C8         5.0620   33.8030  -11.4330 C.3   402  NAG402      0.0964
     21  N2         5.9100   31.5150  -11.0280 N.am  402  NAG402     -0.1994
     22  O3         8.5690   30.5410  -12.1110 O.3   402  NAG402     -0.3264
     23  O4         9.0040   27.7810  -11.8070 O.3   402  NAG402     -0.2178
     24  O5         6.8750   28.6010   -8.9830 O.3   402  NAG402     -0.3262
     25  O6         9.0610   27.2290   -8.0140 O.3   402  NAG402     -0.2176
     26  O7         6.9060   33.3110  -10.0560 O.2   402  NAG402     -0.2733
     27  C1         2.2790   29.4790   -5.8950 C.3   403  GCU403      0.2700
     28  C2         3.7360   29.2890   -5.4770 C.3   403  GCU403      0.2405
     29  C3         4.6540   30.0630   -6.3860 C.3   403  GCU403      0.2172
     30  C4         4.4400   29.6320   -7.8270 C.3   403  GCU403      0.1889
     31  C5         2.9810   29.8680   -8.2310 C.3   403  GCU403      0.2497
     32  C6         2.5970   29.3760   -9.5800 C.2   403  GCU403      0.3940
     33  O2         3.8300   29.8140   -4.1520 O.3   403  GCU403     -0.2149
     34  O3         6.0350   29.9010   -6.0290 O.3   403  GCU403     -0.2175
     35  O4         5.3380   30.2780   -8.6870 O.3   403  GCU403     -0.3258
     36  O5         2.1400   29.2820   -7.2740 O.3   403  GCU403     -0.3170
     37  O6A        2.3790   28.1500   -9.7260 O.co2 403  GCU403     -0.2429
     38  O6B        2.5230   30.2300  -10.4860 O.co2 403  GCU403     -0.2429
     39  C1        -1.3940   28.5860   -3.0920 C.2   404  NAG404      0.3396
     40  C2        -0.2210   29.3690   -3.5840 C.3   404  NAG404      0.2230
     41  C3         0.2110   28.7900   -4.9240 C.3   404  NAG404      0.1824
     42  C4        -0.3860   27.3980   -5.1260 C.3   404  NAG404      0.2236
     43  C5        -1.9130   27.5340   -5.2040 C.3   404  NAG404      0.2342
     44  C6        -2.6280   26.2370   -5.4960 C.3   404  NAG404      0.2281
     45  C7        -1.4230   31.5370   -4.1550 C.2   404  NAG404      0.2424
     46  C8        -1.2490   33.0280   -4.1690 C.3   404  NAG404      0.0964
     47  N2        -0.3780   30.8350   -3.6140 N.am  404  NAG404     -0.1931
     48  O3         1.5950   28.7980   -5.0300 O.3   404  NAG404     -0.3259
     49  O4         0.0400   26.7790   -6.3450 O.3   404  NAG404     -0.2165
     50  O5        -2.3580   28.1270   -3.9880 O.3   404  NAG404     -0.4455
     51  O6        -3.8360   25.9720   -4.7660 O.3   404  NAG404     -0.2163
     52  O7        -2.4360   31.0010   -4.5970 O.2   404  NAG404     -0.2733
     53  O4        -1.9490   28.8540   -1.8910 O.2   405  GCU405     -0.2481
@<TRIPOS>BOND
     1     1    10    1
     2     1     2    1
     3     1    22    1
     4     2     3    1
     5     2     7    1
     6     3     4    1
     7     3     8    1
     8     4     9    1
     9     4     5    1
    10     5     6    1
    11     5    10    1
    12     6    12   ar
    13     6    11   ar
    14    13    14    1
    15    13    24    1
    16    13    35    1
    17    14    15    1
    18    14    21    1
    19    15    22    1
    20    15    16    1
    21    16    23    1
    22    16    17    1
    23    17    18    1
    24    17    24    1
    25    18    25    1
    26    19    20    1
    27    19    21   am
    28    19    26    2
    29    27    36    1
    30    27    28    1
    31    27    48    1
    32    28    29    1
    33    28    33    1
    34    29    30    1
    35    29    34    1
    36    30    35    1
    37    30    31    1
    38    31    32    1
    39    31    36    1
    40    32    38   ar
    41    32    37   ar
    42    39    50    1
    43    39    40    1
    44    39    53    2
    45    40    41    1
    46    40    47    1
    47    41    42    1
    48    41    48    1
    49    42    49    1
    50    42    43    1
    51    43    44    1
    52    43    50    1
    53    44    51    1
    54    45    52    2
    55    45    46    1
    56    45    47   am
