@<TRIPOS>MOLECULE
2mwg_FMN_1_ligand
   50    52     1     0     0
SMALL
NO_CHARGES


@<TRIPOS>ATOM
     1 N1          94.7810    38.3820    81.6150 N.2          1 FMN900   0.0000
     2 C2          93.8330    37.4450    82.0430 C.2          1 FMN900   0.0000
     3 O2          93.1200    36.8690    81.2240 O.2          1 FMN900   0.0000
     4 N3          93.7330    37.1360    83.4060 N.pl3        1 FMN900   0.0000
     5 C4          94.5690    37.7680    84.3340 C.2          1 FMN900   0.0000
     6 O4          94.4630    37.4990    85.5300 O.2          1 FMN900   0.0000
     7 C4A         95.5040    38.7020    83.9010 C.2          1 FMN900   0.0000
     8 N5          96.2630    39.3540    84.7930 N.2          1 FMN900   0.0000
     9 C5A         97.1400    40.2820    84.3860 C.ar         1 FMN900   0.0000
    10 C6          97.8170    41.0510    85.3260 C.ar         1 FMN900   0.0000
    11 C7          98.6410    42.0910    84.9130 C.ar         1 FMN900   0.0000
    12 C7M         99.2920    42.8640    85.8670 C.3          1 FMN900   0.0000
    13 C8          98.8030    42.3480    83.5550 C.ar         1 FMN900   0.0000
    14 C8M         99.6400    43.3720    83.1250 C.3          1 FMN900   0.0000
    15 C9          98.1360    41.5690    82.6150 C.ar         1 FMN900   0.0000
    16 C9A         97.2970    40.5390    83.0290 C.ar         1 FMN900   0.0000
    17 N10         96.5900    39.8310    82.1350 N.pl3        1 FMN900   0.0000
    18 C10         95.6210    39.0020    82.5490 C.2          1 FMN900   0.0000
    19 C1'         96.9120    39.9010    80.6920 C.3          1 FMN900   0.0000
    20 C2'         98.1200    38.9940    80.4460 C.3          1 FMN900   0.0000
    21 O2'         98.8270    38.7940    81.6730 O.3          1 FMN900   0.0000
    22 C3'         99.0520    39.6420    79.4210 C.3          1 FMN900   0.0000
    23 O3'         99.3240    40.9910    79.8110 O.3          1 FMN900   0.0000
    24 C4'         98.3840    39.6320    78.0440 C.3          1 FMN900   0.0000
    25 O4'         97.8790    38.3230    77.7700 O.3          1 FMN900   0.0000
    26 C5'         99.4060    40.0220    76.9740 C.3          1 FMN900   0.0000
    27 O5'        100.5450    39.1800    77.1710 O.3          1 FMN900   0.0000
    28 P          101.0290    38.1940    75.9950 P.3          1 FMN900   0.0000
    29 O1P        101.9090    37.2280    76.6920 O.co2        1 FMN900   0.0000
    30 O2P        101.7290    39.0920    75.0490 O.co2        1 FMN900  -1.0000
    31 O3P         99.7680    37.6180    75.4800 O.co2        1 FMN900  -1.0000
    32 H1          93.0626    36.4622    83.7167 H            1 FMN900   0.0000
    33 H2          97.7108    40.8553    86.3009 H            1 FMN900   0.0000
    34 H7M1        99.8412    43.5640    85.4106 H            1 FMN900   0.0000
    35 H7M2        98.6156    43.3037    86.4579 H            1 FMN900   0.0000
    36 H7M3        99.8876    42.2804    86.4190 H            1 FMN900   0.0000
    37 H8M1        99.6336    43.4104    82.1258 H            1 FMN900   0.0000
    38 H8M2        99.3172    44.2435    83.4941 H            1 FMN900   0.0000
    39 H8M3       100.5711    43.1984    83.4459 H            1 FMN900   0.0000
    40 H9          98.2598    41.7497    81.6393 H            1 FMN900   0.0000
    41 H1'1        97.1340    40.8421    80.4369 H            1 FMN900   0.0000
    42 H1'2        96.1319    39.5846    80.1523 H            1 FMN900   0.0000
    43 H2'         97.8059    38.1112    80.0968 H            1 FMN900   0.0000
    44 H13         99.2666    37.8959    81.6618 H            1 FMN900   0.0000
    45 H3'         99.9090    39.1284    79.3789 H            1 FMN900   0.0000
    46 H15         99.4865    41.5473    78.9960 H            1 FMN900   0.0000
    47 H4'         97.6289    40.2875    78.0365 H            1 FMN900   0.0000
    48 H17         98.3140    37.9640    76.9442 H            1 FMN900   0.0000
    49 H5'1        99.6648    40.9824    77.0777 H            1 FMN900   0.0000
    50 H5'2        99.0230    39.8766    76.0617 H            1 FMN900   0.0000
@<TRIPOS>BOND
     1    1    2       1
     2    1   18       2
     3    2    3       2
     4    2    4       1
     5    4    5       1
     6    5    6       2
     7    5    7       1
     8    7    8       2
     9    7   18       1
    10    8    9       1
    11    9   10      ar
    12    9   16      ar
    13   10   11      ar
    14   11   12       1
    15   11   13      ar
    16   13   14       1
    17   13   15      ar
    18   15   16      ar
    19   16   17       1
    20   17   18       1
    21   17   19       1
    22   19   20       1
    23   20   21       1
    24   20   22       1
    25   22   23       1
    26   22   24       1
    27   24   25       1
    28   24   26       1
    29   26   27       1
    30   27   28       1
    31   28   29      ar
    32   28   30      ar
    33   28   31      ar
    34    4   32       1
    35   10   33       1
    36   12   34       1
    37   12   35       1
    38   12   36       1
    39   14   37       1
    40   14   38       1
    41   14   39       1
    42   15   40       1
    43   19   41       1
    44   19   42       1
    45   20   43       1
    46   21   44       1
    47   22   45       1
    48   23   46       1
    49   24   47       1
    50   25   48       1
    51   26   49       1
    52   26   50       1
@<TRIPOS>SUBSTRUCTURE
     1 FMN900      1 GROUP             4 A     FMN     0 **** FMN A 900
