@<TRIPOS>MOLECULE
3sma_ACO_1_ligand
   85    87     1     0     0
SMALL
NO_CHARGES


@<TRIPOS>ATOM
     1 N1A        -10.2960    21.2810    49.6960 N.ar         1 ACO300   0.0000
     2 C2A         -9.6900    22.2100    48.8750 C.ar         1 ACO300   0.0000
     3 N3A         -8.6790    22.9590    49.3890 N.ar         1 ACO300   0.0000
     4 C4A         -8.2740    22.7420    50.6830 C.ar         1 ACO300   0.0000
     5 C5A         -8.9160    21.7530    51.5300 C.ar         1 ACO300   0.0000
     6 C6A         -9.9980    21.0390    50.9370 C.ar         1 ACO300   0.0000
     7 N6A        -10.7130    20.1190    51.5960 N.pl3        1 ACO300   0.0000
     8 N7A         -8.2580    21.7780    52.7590 N.2          1 ACO300   0.0000
     9 C8A         -7.2790    22.7280    52.5840 C.2          1 ACO300   0.0000
    10 N9A         -7.3200    23.2970    51.3920 N.pl3        1 ACO300   0.0000
    11 C1B         -6.5120    24.3340    50.7540 C.3          1 ACO300   0.0000
    12 C2B         -5.9090    25.3560    51.6870 C.3          1 ACO300   0.0000
    13 O2B         -6.0980    26.5620    50.8660 O.3          1 ACO300   0.0000
    14 C3B         -4.4360    24.9870    51.6960 C.3          1 ACO300   0.0000
    15 O3B         -3.6310    26.1530    51.9650 O.3          1 ACO300   0.0000
    16 P3B         -3.0640    26.3700    53.5390 P.3          1 ACO300   0.0000
    17 O7A         -2.5950    24.9220    53.9200 O.co2        1 ACO300   0.0000
    18 O8A         -1.9840    27.4690    53.4070 O.co2        1 ACO300  -1.0000
    19 O9A         -4.2960    26.8800    54.3520 O.co2        1 ACO300  -1.0000
    20 C4B         -4.1590    24.2850    50.3220 C.3          1 ACO300   0.0000
    21 O4B         -5.4490    23.7440    50.0120 O.3          1 ACO300   0.0000
    22 C5B         -3.1540    23.1170    50.5030 C.3          1 ACO300   0.0000
    23 O5B         -2.9900    22.6160    49.1780 O.3          1 ACO300   0.0000
    24 P1A         -1.5450    22.2840    48.5100 P.3          1 ACO300   0.0000
    25 O1A         -1.7640    21.3270    47.3990 O.co2        1 ACO300   0.0000
    26 O2A         -0.4640    22.1030    49.5710 O.co2        1 ACO300  -1.0000
    27 O3A         -1.0930    23.6590    47.8250 O.3          1 ACO300   0.0000
    28 P2A         -1.5280    24.3530    46.5660 P.3          1 ACO300   0.0000
    29 O4A         -2.8480    23.9580    46.0970 O.co2        1 ACO300   0.0000
    30 O5A         -1.0830    25.8540    46.6030 O.co2        1 ACO300  -1.0000
    31 O6A         -0.5080    23.8530    45.4170 O.3          1 ACO300   0.0000
    32 CBP          1.9050    23.2000    44.9160 C.3          1 ACO300   0.0000
    33 CCP          0.9030    24.3310    45.2300 C.3          1 ACO300   0.0000
    34 CDP          1.7550    22.1520    46.0220 C.3          1 ACO300   0.0000
    35 CEP          3.4440    23.6050    44.9470 C.3          1 ACO300   0.0000
    36 CAP          1.4490    22.6460    43.5150 C.3          1 ACO300   0.0000
    37 OAP          1.0420    23.6150    42.5310 O.3          1 ACO300   0.0000
    38 C9P          2.4030    21.6650    42.8530 C.2          1 ACO300   0.0000
    39 O9P          3.2240    22.1320    42.0710 O.2          1 ACO300   0.0000
    40 N8P          2.3180    20.3240    43.1530 N.am         1 ACO300   0.0000
    41 C7P          3.2380    19.3640    42.4920 C.3          1 ACO300   0.0000
    42 C6P          4.4760    19.4870    43.3780 C.3          1 ACO300   0.0000
    43 C5P          5.5450    18.5770    42.6760 C.2          1 ACO300   0.0000
    44 O5P          5.3110    17.3500    42.3910 O.2          1 ACO300   0.0000
    45 N4P          6.6730    19.1980    42.4260 N.am         1 ACO300   0.0000
    46 C3P          7.8510    18.6370    41.7960 C.3          1 ACO300   0.0000
    47 C2P          9.0160    19.7070    41.9590 C.3          1 ACO300   0.0000
    48 S1P         10.2160    19.2740    40.7420 S.3          1 ACO300   0.0000
    49 C           10.6460    20.5580    39.4970 C.2          1 ACO300   0.0000
    50 O            9.8880    20.6430    38.5940 O.2          1 ACO300   0.0000
    51 CH3         11.9450    21.5180    39.4440 C.3          1 ACO300   0.0000
    52 H2A         -9.9867    22.3289    47.9275 H            1 ACO300   0.0000
    53 H6A1       -10.5039    19.9139    52.5522 H            1 ACO300   0.0000
    54 H6A2       -11.4562    19.6368    51.1321 H            1 ACO300   0.0000
    55 H8A         -6.6064    22.9636    53.2855 H            1 ACO300   0.0000
    56 H1B         -7.0991    24.8218    50.1079 H            1 ACO300   0.0000
    57 H2B         -6.3339    25.3967    52.5913 H            1 ACO300   0.0000
    58 H7          -5.7399    27.3575    51.3548 H            1 ACO300   0.0000
    59 H3B         -4.2819    24.3219    52.4267 H            1 ACO300   0.0000
    60 H4B         -3.8519    24.9355    49.6273 H            1 ACO300   0.0000
    61 H5B1        -3.5274    22.4138    51.1081 H            1 ACO300   0.0000
    62 H5B2        -2.2847    23.4464    50.8714 H            1 ACO300   0.0000
    63 HCP1         1.1955    24.7876    46.0702 H            1 ACO300   0.0000
    64 HCP2         0.9172    24.9844    44.4732 H            1 ACO300   0.0000
    65 HDP1         2.3903    21.3980    45.8551 H            1 ACO300   0.0000
    66 HDP2         1.9591    22.5700    46.9072 H            1 ACO300   0.0000
    67 HDP3         0.8177    21.8035    46.0261 H            1 ACO300   0.0000
    68 HEP1         4.0037    22.8049    44.7313 H            1 ACO300   0.0000
    69 HEP2         3.6136    24.3224    44.2713 H            1 ACO300   0.0000
    70 HEP3         3.6817    23.9422    45.8579 H            1 ACO300   0.0000
    71 HAP          0.6248    22.1129    43.7060 H            1 ACO300   0.0000
    72 H21          1.6314    23.5410    41.7266 H            1 ACO300   0.0000
    73 H8P          1.6404    19.9983    43.8124 H            1 ACO300   0.0000
    74 H7P1         3.4335    19.6330    41.5489 H            1 ACO300   0.0000
    75 H7P2         2.8691    18.4346    42.5039 H            1 ACO300   0.0000
    76 H6P1         4.2839    19.1592    44.3030 H            1 ACO300   0.0000
    77 H6P2         4.7898    20.4356    43.4189 H            1 ACO300   0.0000
    78 H4P          6.7254    20.1587    42.6986 H            1 ACO300   0.0000
    79 H3P1         7.6742    18.4661    40.8267 H            1 ACO300   0.0000
    80 H3P2         8.1058    17.7803    42.2444 H            1 ACO300   0.0000
    81 H2P1         9.4124    19.6567    42.8757 H            1 ACO300   0.0000
    82 H2P2         8.6690    20.6306    41.7961 H            1 ACO300   0.0000
    83 HH31        11.8889    22.1108    38.6406 H            1 ACO300   0.0000
    84 HH32        11.9785    22.0795    40.2708 H            1 ACO300   0.0000
    85 HH33        12.7714    20.9578    39.3878 H            1 ACO300   0.0000
@<TRIPOS>BOND
     1    1    2      ar
     2    1    6      ar
     3    2    3      ar
     4    3    4      ar
     5    4    5      ar
     6    4   10       1
     7    5    6      ar
     8    5    8       1
     9    6    7       1
    10    8    9       2
    11    9   10       1
    12   10   11       1
    13   11   12       1
    14   11   21       1
    15   12   13       1
    16   12   14       1
    17   14   15       1
    18   14   20       1
    19   15   16       1
    20   16   17      ar
    21   16   18      ar
    22   16   19      ar
    23   20   21       1
    24   20   22       1
    25   22   23       1
    26   23   24       1
    27   24   25      ar
    28   24   26      ar
    29   24   27       1
    30   27   28       1
    31   28   29      ar
    32   28   30      ar
    33   28   31       1
    34   31   33       1
    35   32   33       1
    36   32   34       1
    37   32   35       1
    38   32   36       1
    39   36   37       1
    40   36   38       1
    41   38   39       2
    42   38   40      am
    43   40   41       1
    44   41   42       1
    45   42   43       1
    46   43   44       2
    47   43   45      am
    48   45   46       1
    49   46   47       1
    50   47   48       1
    51   48   49       1
    52   49   50       2
    53   49   51       1
    54    2   52       1
    55    7   53       1
    56    7   54       1
    57    9   55       1
    58   11   56       1
    59   12   57       1
    60   13   58       1
    61   14   59       1
    62   51   85       1
    63   51   84       1
    64   20   60       1
    65   22   61       1
    66   22   62       1
    67   51   83       1
    68   47   82       1
    69   33   63       1
    70   33   64       1
    71   34   65       1
    72   34   66       1
    73   34   67       1
    74   35   68       1
    75   35   69       1
    76   35   70       1
    77   36   71       1
    78   37   72       1
    79   40   73       1
    80   41   74       1
    81   41   75       1
    82   42   76       1
    83   42   77       1
    84   45   78       1
    85   46   79       1
    86   46   80       1
    87   47   81       1
@<TRIPOS>SUBSTRUCTURE
     1 ACO300      1 GROUP             4 A     ACO     0 **** ACO A 300
