@<TRIPOS>MOLECULE
1usc_FMN_2_ligand
   50    52     1     0     0
SMALL
NO_CHARGES


@<TRIPOS>ATOM
     1 N1          51.1950    -4.4430    13.5250 N.2          1 FMN1179   0.0000
     2 C2          50.1550    -5.2810    13.6670 C.2          1 FMN1179   0.0000
     3 O2          48.9450    -5.0170    13.6390 O.2          1 FMN1179   0.0000
     4 N3          50.4520    -6.7120    13.8850 N.pl3        1 FMN1179   0.0000
     5 C4          51.7900    -7.2210    13.9470 C.2          1 FMN1179   0.0000
     6 O4          51.8670    -8.4390    14.1350 O.2          1 FMN1179   0.0000
     7 C4A         52.8050    -6.2980    13.7880 C.2          1 FMN1179   0.0000
     8 N5          54.0330    -6.7220    13.8350 N.2          1 FMN1179   0.0000
     9 C5A         55.1010    -5.8510    13.4930 C.ar         1 FMN1179   0.0000
    10 C6          56.4420    -6.2940    13.3330 C.ar         1 FMN1179   0.0000
    11 C7          57.4940    -5.3520    12.9830 C.ar         1 FMN1179   0.0000
    12 C7M         58.9180    -5.8620    12.8060 C.3          1 FMN1179   0.0000
    13 C8          57.1760    -3.9320    12.8020 C.ar         1 FMN1179   0.0000
    14 C8M         58.2470    -2.9810    12.4550 C.3          1 FMN1179   0.0000
    15 C9          55.8770    -3.4960    12.9510 C.ar         1 FMN1179   0.0000
    16 C9A         54.7630    -4.4200    13.2980 C.ar         1 FMN1179   0.0000
    17 N10         53.4830    -3.8950    13.4120 N.pl3        1 FMN1179   0.0000
    18 C10         52.4870    -4.8160    13.5660 C.2          1 FMN1179   0.0000
    19 C1'         53.0570    -2.5270    13.1380 C.3          1 FMN1179   0.0000
    20 C2'         52.7030    -2.2340    11.6880 C.3          1 FMN1179   0.0000
    21 O2'         53.5770    -2.9360    10.8240 O.3          1 FMN1179   0.0000
    22 C3'         52.8570    -0.7540    11.5490 C.3          1 FMN1179   0.0000
    23 O3'         51.8280    -0.0740    12.3300 O.3          1 FMN1179   0.0000
    24 C4'         52.6820    -0.2550    10.0920 C.3          1 FMN1179   0.0000
    25 O4'         53.1680     1.0570     9.9810 O.3          1 FMN1179   0.0000
    26 C5'         51.1990    -0.3400     9.6300 C.3          1 FMN1179   0.0000
    27 O5'         51.2040     0.1200     8.2510 O.3          1 FMN1179   0.0000
    28 P           49.8250     0.3850     7.5640 P.3          1 FMN1179   0.0000
    29 O1P         49.0340    -0.8740     7.5280 O.co2        1 FMN1179   0.0000
    30 O2P         49.0580     1.4730     8.3580 O.co2        1 FMN1179  -1.0000
    31 O3P         50.1010     0.8650     6.1300 O.co2        1 FMN1179  -1.0000
    32 H1          49.6896    -7.3500    13.9935 H            1 FMN1179   0.0000
    33 H2          56.6641    -7.2605    13.4620 H            1 FMN1179   0.0000
    34 H7M1        59.5185    -5.0984    12.5687 H            1 FMN1179   0.0000
    35 H7M2        59.2310    -6.2795    13.6591 H            1 FMN1179   0.0000
    36 H7M3        58.9396    -6.5430    12.0740 H            1 FMN1179   0.0000
    37 H8M1        57.8620    -2.0621    12.3694 H            1 FMN1179   0.0000
    38 H8M2        58.9424    -2.9854    13.1736 H            1 FMN1179   0.0000
    39 H8M3        58.6633    -3.2502    11.5866 H            1 FMN1179   0.0000
    40 H9          55.6760    -2.5250    12.8214 H            1 FMN1179   0.0000
    41 H1'1        53.7998    -1.9129    13.4047 H            1 FMN1179   0.0000
    42 H1'2        52.2502    -2.3369    13.6974 H            1 FMN1179   0.0000
    43 H2'         51.7559    -2.4986    11.5063 H            1 FMN1179   0.0000
    44 H13         53.4927    -3.9184    10.9908 H            1 FMN1179   0.0000
    45 H3'         53.7592    -0.4830    11.8846 H            1 FMN1179   0.0000
    46 H15         52.1674     0.0917    13.2559 H            1 FMN1179   0.0000
    47 H4'         53.2286    -0.8413     9.4941 H            1 FMN1179   0.0000
    48 H17         53.0539     1.3763     9.0402 H            1 FMN1179   0.0000
    49 H5'1        50.6213     0.2495    10.1945 H            1 FMN1179   0.0000
    50 H5'2        50.8679    -1.2820     9.6845 H            1 FMN1179   0.0000
@<TRIPOS>BOND
     1    1    2       1
     2    1   18       2
     3    2    3       2
     4    2    4       1
     5    4    5       1
     6    5    6       2
     7    5    7       1
     8    7    8       2
     9    7   18       1
    10    8    9       1
    11    9   10      ar
    12    9   16      ar
    13   10   11      ar
    14   11   12       1
    15   11   13      ar
    16   13   14       1
    17   13   15      ar
    18   15   16      ar
    19   16   17       1
    20   17   18       1
    21   17   19       1
    22   19   20       1
    23   20   21       1
    24   20   22       1
    25   22   23       1
    26   22   24       1
    27   24   25       1
    28   24   26       1
    29   26   27       1
    30   27   28       1
    31   28   29      ar
    32   28   30      ar
    33   28   31      ar
    34    4   32       1
    35   10   33       1
    36   12   34       1
    37   12   35       1
    38   12   36       1
    39   14   37       1
    40   14   38       1
    41   14   39       1
    42   15   40       1
    43   19   41       1
    44   19   42       1
    45   20   43       1
    46   21   44       1
    47   22   45       1
    48   23   46       1
    49   24   47       1
    50   25   48       1
    51   26   49       1
    52   26   50       1
@<TRIPOS>SUBSTRUCTURE
     1 FMN1179     1 GROUP             4 B     FMN     0 **** FMN B1179
