@<TRIPOS>MOLECULE
3hx4_ANP_1_ligand
   44    46     1     0     0
SMALL
NO_CHARGES


@<TRIPOS>ATOM
     1 PG          -2.5720    53.7890    64.3070 P.3          1 ANP605   0.0000
     2 O1G         -2.9480    54.4830    65.5950 O.co2        1 ANP605   0.0000
     3 O2G         -3.3200    54.2820    63.0910 O.co2        1 ANP605  -1.0000
     4 O3G         -1.0840    53.6550    64.0740 O.co2        1 ANP605  -1.0000
     5 PB          -4.8970    51.9390    64.2680 P.3          1 ANP605   0.0000
     6 O1B         -5.1080    50.5700    63.6680 O.co2        1 ANP605   0.0000
     7 O2B         -5.6330    52.3080    65.5400 O.co2        1 ANP605  -1.0000
     8 N3B         -3.1860    52.1680    64.5380 N.3          1 ANP605   0.0000
     9 PA          -5.2560    52.6880    61.5950 P.3          1 ANP605   0.0000
    10 O1A         -5.8560    53.8250    60.8210 O.co2        1 ANP605   0.0000
    11 O2A         -3.8260    52.2620    61.3280 O.co2        1 ANP605  -1.0000
    12 O3A         -5.3550    53.0230    63.1640 O.3          1 ANP605   0.0000
    13 O5'         -6.2750    51.4460    61.4810 O.3          1 ANP605   0.0000
    14 C5'         -7.4690    51.4830    62.2680 C.3          1 ANP605   0.0000
    15 C4'         -8.5930    50.5770    61.7590 C.3          1 ANP605   0.0000
    16 O4'         -9.1260    51.0330    60.5050 O.3          1 ANP605   0.0000
    17 C3'         -8.1260    49.1530    61.5460 C.3          1 ANP605   0.0000
    18 O3'         -9.1430    48.2640    62.0190 O.3          1 ANP605   0.0000
    19 C2'         -8.0360    49.0580    60.0400 C.3          1 ANP605   0.0000
    20 O2'         -8.1920    47.7220    59.5900 O.3          1 ANP605   0.0000
    21 C1'         -9.1920    49.9300    59.5970 C.3          1 ANP605   0.0000
    22 N9          -9.0210    50.3090    58.1720 N.pl3        1 ANP605   0.0000
    23 C8          -7.9450    50.9090    57.6310 C.2          1 ANP605   0.0000
    24 N7          -8.1210    51.1000    56.2950 N.2          1 ANP605   0.0000
    25 C5          -9.3290    50.6060    55.9610 C.ar         1 ANP605   0.0000
    26 C6         -10.1310    50.4790    54.7150 C.ar         1 ANP605   0.0000
    27 N6          -9.6780    50.9250    53.5170 N.pl3        1 ANP605   0.0000
    28 N1         -11.3370    49.8970    54.8110 N.ar         1 ANP605   0.0000
    29 C2         -11.8070    49.4450    55.9910 C.ar         1 ANP605   0.0000
    30 N3         -11.1450    49.5240    57.1570 N.ar         1 ANP605   0.0000
    31 C4          -9.9140    50.0870    57.2060 C.ar         1 ANP605   0.0000
    32 H3B         -2.9882    51.8993    65.4807 H            1 ANP605   0.0000
    33 H5'1        -7.8070    52.4241    62.2787 H            1 ANP605   0.0000
    34 H5'2        -7.2381    51.2011    63.1993 H            1 ANP605   0.0000
    35 H4'         -9.3295    50.5728    62.4354 H            1 ANP605   0.0000
    36 H3'         -7.2443    48.9793    61.9847 H            1 ANP605   0.0000
    37 H6          -8.7210    47.4181    62.3450 H            1 ANP605   0.0000
    38 H2'         -7.1686    49.4367    59.7170 H            1 ANP605   0.0000
    39 H8          -7.4727    47.1509    59.9855 H            1 ANP605   0.0000
    40 H1'        -10.0551    49.4397    59.7183 H            1 ANP605   0.0000
    41 H10         -7.1278    51.1778    58.1408 H            1 ANP605   0.0000
    42 H11        -10.2441    50.8232    52.6990 H            1 ANP605   0.0000
    43 H12         -8.7778    51.3556    53.4517 H            1 ANP605   0.0000
    44 H13        -12.7126    49.0209    55.9987 H            1 ANP605   0.0000
@<TRIPOS>BOND
     1    1    2      ar
     2    1    3      ar
     3    1    4      ar
     4    1    8       1
     5    5    6      ar
     6    5    7      ar
     7    5    8       1
     8    5   12       1
     9    9   10      ar
    10    9   11      ar
    11    9   12       1
    12    9   13       1
    13   13   14       1
    14   14   15       1
    15   15   16       1
    16   15   17       1
    17   16   21       1
    18   17   18       1
    19   17   19       1
    20   19   20       1
    21   19   21       1
    22   21   22       1
    23   22   23       1
    24   22   31       1
    25   23   24       2
    26   24   25       1
    27   25   26      ar
    28   25   31      ar
    29   26   27       1
    30   26   28      ar
    31   28   29      ar
    32   29   30      ar
    33   30   31      ar
    34   29   44       1
    35   27   43       1
    36   27   42       1
    37    8   32       1
    38   23   41       1
    39   14   33       1
    40   14   34       1
    41   15   35       1
    42   17   36       1
    43   18   37       1
    44   19   38       1
    45   20   39       1
    46   21   40       1
@<TRIPOS>SUBSTRUCTURE
     1 ANP605      1 GROUP             4 A     ANP     0 **** ANP A 605
