@<TRIPOS>MOLECULE
5dhh_DGW_1_ligand
   58    61     1     0     0
SMALL
USER_CHARGES


@<TRIPOS>ATOM
     1 CLAC       -12.1180    31.2110     2.5010 Cl           1 DGW1206   0.0000
     2 CAT        -10.4350    31.4040     2.7020 C.ar         1 DGW1206   0.0000
     3 CAH         -9.9740    31.8080     3.9470 C.ar         1 DGW1206   0.0000
     4 CAE         -8.6170    31.9860     4.1580 C.ar         1 DGW1206   0.0000
     5 CAI         -7.7270    31.7520     3.1240 C.ar         1 DGW1206   0.0000
     6 CAU         -8.1680    31.3470     1.8720 C.ar         1 DGW1206   0.0000
     7 CLAD        -6.8920    31.0990     0.6720 Cl           1 DGW1206   0.0000
     8 CAX         -9.5500    31.1630     1.6490 C.ar         1 DGW1206   0.0000
     9 CBA        -10.0740    30.7600     0.4000 C.3          1 DGW1206   0.0000
    10 CAM         -9.6520    31.6640    -0.7150 C.3          1 DGW1206   0.0000
    11 CAO        -10.2230    31.2180    -2.0440 C.3          1 DGW1206   0.0000
    12 CAN         -9.7090    29.3030     0.0550 C.3          1 DGW1206   0.0000
    13 CAP        -10.3110    28.9590    -1.3130 C.3          1 DGW1206   0.0000
    14 NBB         -9.7700    29.8590    -2.3610 N.4          1 DGW1206   1.0000
    15 CAR        -10.3540    29.5430    -3.6760 C.3          1 DGW1206   0.0000
    16 CAZ        -10.0660    28.1990    -4.3600 C.3          1 DGW1206   0.0000
    17 CAQ         -8.5520    28.0630    -4.3850 C.3          1 DGW1206   0.0000
    18 CAY         -7.9480    26.7930    -5.0240 C.3          1 DGW1206   0.0000
    19 OAB         -6.5270    26.7260    -4.8100 O.3          1 DGW1206   0.0000
    20 CAV         -8.2660    26.6020    -6.3760 C.ar         1 DGW1206   0.0000
    21 CAJ         -7.1150    26.1790    -7.0300 C.ar         1 DGW1206   0.0000
    22 CAF         -7.1120    25.9200    -8.3930 C.ar         1 DGW1206   0.0000
    23 CAG         -8.2760    26.0920    -9.1310 C.ar         1 DGW1206   0.0000
    24 CAS         -9.4370    26.5240    -8.4960 C.ar         1 DGW1206   0.0000
    25 CAA        -10.6050    26.6920    -9.2550 C.3          1 DGW1206   0.0000
    26 CAW         -9.4300    26.7840    -7.1170 C.ar         1 DGW1206   0.0000
    27 CAK        -10.6860    27.1980    -6.7060 C.3          1 DGW1206   0.0000
    28 CAL        -10.7470    28.3530    -5.7210 C.3          1 DGW1206   0.0000
    29 HAH        -10.6215    31.9705     4.6915 H            1 DGW1206   0.0000
    30 HAE         -8.2819    32.2820     5.0525 H            1 DGW1206   0.0000
    31 HAI         -6.7476    31.8772     3.2822 H            1 DGW1206   0.0000
    32 HBA        -11.0706    30.8107     0.4642 H            1 DGW1206   0.0000
    33 HAM1        -8.6537    31.6616    -0.7740 H            1 DGW1206   0.0000
    34 HAM2        -9.9721    32.5910    -0.5195 H            1 DGW1206   0.0000
    35 HAO1        -9.9170    31.8438    -2.7615 H            1 DGW1206   0.0000
    36 HAO2       -11.2217    31.2300    -1.9949 H            1 DGW1206   0.0000
    37 HAN1       -10.0809    28.6886     0.7509 H            1 DGW1206   0.0000
    38 HAN2        -8.7145    29.2040     0.0200 H            1 DGW1206   0.0000
    39 HAP1       -11.3046    29.0633    -1.2707 H            1 DGW1206   0.0000
    40 HAP2       -10.0847    28.0126    -1.5433 H            1 DGW1206   0.0000
    41 HAR1       -10.0435    30.2557    -4.3050 H            1 DGW1206   0.0000
    42 HAR2       -11.3465    29.6020    -3.5692 H            1 DGW1206   0.0000
    43 HAZ        -10.4776    27.4474    -3.8445 H            1 DGW1206   0.0000
    44 HAQ1        -8.2346    28.0987    -3.4374 H            1 DGW1206   0.0000
    45 HAQ2        -8.1912    28.8489    -4.8872 H            1 DGW1206   0.0000
    46 HAY         -8.3422    26.0172    -4.5314 H            1 DGW1206   0.0000
    47 HAB         -6.3054    25.8940    -4.3013 H            1 DGW1206   0.0000
    48 HAJ         -6.2711    26.0588    -6.5071 H            1 DGW1206   0.0000
    49 HAF         -6.2742    25.6104    -8.8428 H            1 DGW1206   0.0000
    50 HAG         -8.2800    25.9064   -10.1136 H            1 DGW1206   0.0000
    51 HAA1       -11.3466    27.0039    -8.6610 H            1 DGW1206   0.0000
    52 HAA2       -10.4428    27.3716    -9.9704 H            1 DGW1206   0.0000
    53 HAA3       -10.8582    25.8203    -9.6745 H            1 DGW1206   0.0000
    54 HAK1       -11.1366    26.4140    -6.2790 H            1 DGW1206   0.0000
    55 HAK2       -11.1950    27.4712    -7.5222 H            1 DGW1206   0.0000
    56 HAL1       -10.3310    29.1440    -6.1697 H            1 DGW1206   0.0000
    57 HAL2       -11.7138    28.5392    -5.5462 H            1 DGW1206   0.0000
    58 HBB         -8.7716    29.8126    -2.3922 H            1 DGW1206   0.0000
@<TRIPOS>BOND
     1    1    2       1
     2    2    3      ar
     3    2    8      ar
     4    3    4      ar
     5    4    5      ar
     6    5    6      ar
     7    6    7       1
     8    6    8      ar
     9    8    9       1
    10    9   10       1
    11    9   12       1
    12   10   11       1
    13   11   14       1
    14   12   13       1
    15   13   14       1
    16   14   15       1
    17   15   16       1
    18   16   17       1
    19   16   28       1
    20   17   18       1
    21   18   19       1
    22   18   20       1
    23   20   21      ar
    24   20   26      ar
    25   21   22      ar
    26   22   23      ar
    27   23   24      ar
    28   24   25       1
    29   24   26      ar
    30   26   27       1
    31   27   28       1
    32    3   29       1
    33    4   30       1
    34    5   31       1
    35    9   32       1
    36   10   33       1
    37   10   34       1
    38   11   35       1
    39   11   36       1
    40   12   37       1
    41   12   38       1
    42   13   39       1
    43   13   40       1
    44   15   41       1
    45   15   42       1
    46   16   43       1
    47   17   44       1
    48   17   45       1
    49   18   46       1
    50   19   47       1
    51   21   48       1
    52   22   49       1
    53   23   50       1
    54   25   51       1
    55   25   52       1
    56   25   53       1
    57   27   54       1
    58   27   55       1
    59   28   56       1
    60   28   57       1
    61   14   58       1
@<TRIPOS>SUBSTRUCTURE
     1 DGW1206     1 GROUP             4 A     DGW     0 **** DGW A1206
