@<TRIPOS>MOLECULE
2toh_HBI_1_ligand
   30    31     1     0     0
SMALL
NO_CHARGES


@<TRIPOS>ATOM
     1 N1          72.5310    59.7590    32.9450 N.pl3        1 HBI500   0.0000
     2 N2          70.4320    60.6660    33.2640 N.pl3        1 HBI500   0.0000
     3 C2          71.5640    60.2190    33.7620 C.2          1 HBI500   0.0000
     4 N3          71.6400    60.2690    35.1280 N.2          1 HBI500   0.0000
     5 C4          72.7970    59.8120    35.7790 C.2          1 HBI500   0.0000
     6 O4          72.9090    59.8380    37.0320 O.2          1 HBI500   0.0000
     7 C4A         73.8450    59.2980    34.9840 C.2          1 HBI500   0.0000
     8 C8A         73.6640    59.3000    33.5570 C.2          1 HBI500   0.0000
     9 N8          74.6400    58.8330    32.6740 N.pl3        1 HBI500   0.0000
    10 C7          75.6620    57.9310    33.2530 C.3          1 HBI500   0.0000
    11 C6          75.9840    58.1460    34.7270 C.2          1 HBI500   0.0000
    12 N5          75.0360    58.7800    35.5140 N.2          1 HBI500   0.0000
    13 C9          77.1620    57.4750    35.4060 C.3          1 HBI500   0.0000
    14 O9          78.1810    57.2390    34.4180 O.3          1 HBI500   0.0000
    15 C10         77.8030    58.2580    36.5870 C.3          1 HBI500   0.0000
    16 O10         77.0820    59.4680    36.8660 O.3          1 HBI500   0.0000
    17 C11         77.7880    57.4180    37.8630 C.3          1 HBI500   0.0000
    18 H1          69.7170    61.0065    33.8746 H            1 HBI500   0.0000
    19 H2          70.2862    60.6654    32.2747 H            1 HBI500   0.0000
    20 H3          74.6483    59.0922    31.7082 H            1 HBI500   0.0000
    21 H4          76.5079    58.0537    32.7339 H            1 HBI500   0.0000
    22 H5          75.3376    56.9913    33.1445 H            1 HBI500   0.0000
    23 H6          76.8556    56.5884    35.7525 H            1 HBI500   0.0000
    24 H7          78.3674    56.2583    34.3591 H            1 HBI500   0.0000
    25 H8          78.7487    58.4856    36.3550 H            1 HBI500   0.0000
    26 H9          76.3118    59.5504    36.2336 H            1 HBI500   0.0000
    27 H10         78.2036    57.9380    38.6093 H            1 HBI500   0.0000
    28 H11         76.8438    57.1901    38.1010 H            1 HBI500   0.0000
    29 H12         78.3067    56.5761    37.7140 H            1 HBI500   0.0000
    30 H13         72.4264    59.7536    31.9505 H            1 HBI500   0.0000
@<TRIPOS>BOND
     1    1    3       1
     2    1    8       1
     3    2    3       1
     4    3    4       2
     5    4    5       1
     6    5    6       2
     7    5    7       1
     8    7    8       2
     9    7   12       1
    10    8    9       1
    11    9   10       1
    12   10   11       1
    13   11   12       2
    14   11   13       1
    15   13   14       1
    16   13   15       1
    17   15   16       1
    18   15   17       1
    19    2   18       1
    20    2   19       1
    21    1   30       1
    22    9   20       1
    23   10   21       1
    24   10   22       1
    25   13   23       1
    26   14   24       1
    27   15   25       1
    28   16   26       1
    29   17   27       1
    30   17   28       1
    31   17   29       1
@<TRIPOS>SUBSTRUCTURE
     1 HBI500      1 GROUP             4 A     HBI     0 **** HBI A 500
