@<TRIPOS>MOLECULE
3dzv_ADP_1_ligand
   39    41     1     0     0
SMALL
NO_CHARGES


@<TRIPOS>ATOM
     1 PB         118.8700   123.0210   142.1420 P.3          1 ADP500   0.0000
     2 O1B        119.7700   123.8820   141.2520 O.co2        1 ADP500   0.0000
     3 O2B        117.6220   123.7030   142.6820 O.co2        1 ADP500  -1.0000
     4 O3B        118.5820   121.6320   141.5750 O.co2        1 ADP500  -1.0000
     5 PA         120.0090   123.5290   144.8520 P.3          1 ADP500   0.0000
     6 O1A        118.9780   123.0160   145.8600 O.co2        1 ADP500   0.0000
     7 O2A        120.1390   125.0090   144.5570 O.co2        1 ADP500  -1.0000
     8 O3A        119.8340   122.7250   143.4370 O.3          1 ADP500   0.0000
     9 O5'        121.4310   123.0000   145.4030 O.3          1 ADP500   0.0000
    10 C5'        122.6990   123.4420   144.9170 C.3          1 ADP500   0.0000
    11 C4'        123.7520   123.2690   146.0020 C.3          1 ADP500   0.0000
    12 O4'        123.8370   124.4960   146.7300 O.3          1 ADP500   0.0000
    13 C3'        123.4050   122.1800   147.0030 C.3          1 ADP500   0.0000
    14 O3'        124.5850   121.4720   147.3770 O.3          1 ADP500   0.0000
    15 C2'        122.8250   122.9190   148.1850 C.3          1 ADP500   0.0000
    16 O2'        123.2030   122.3020   149.4220 O.3          1 ADP500   0.0000
    17 C1'        123.3960   124.3300   148.0720 C.3          1 ADP500   0.0000
    18 N9         122.3990   125.3750   148.4320 N.pl3        1 ADP500   0.0000
    19 C8         121.3580   125.8100   147.6940 C.2          1 ADP500   0.0000
    20 N7         120.6670   126.7710   148.3550 N.2          1 ADP500   0.0000
    21 C5         121.2830   126.9650   149.5350 C.ar         1 ADP500   0.0000
    22 C6         121.0900   127.8270   150.7270 C.ar         1 ADP500   0.0000
    23 N6         120.0730   128.6960   150.7640 N.pl3        1 ADP500   0.0000
    24 N1         121.9580   127.7330   151.7660 N.ar         1 ADP500   0.0000
    25 C2         122.9890   126.8560   151.7300 C.ar         1 ADP500   0.0000
    26 N3         123.2270   126.0260   150.6800 N.ar         1 ADP500   0.0000
    27 C4         122.4230   126.0390   149.5810 C.ar         1 ADP500   0.0000
    28 H5'1       122.6394   124.4072   144.6623 H            1 ADP500   0.0000
    29 H5'2       122.9550   122.9010   144.1159 H            1 ADP500   0.0000
    30 H4'        124.6364   123.0674   145.5811 H            1 ADP500   0.0000
    31 H3'        122.7287   121.5528   146.6168 H            1 ADP500   0.0000
    32 H5         125.2369   122.1065   147.7922 H            1 ADP500   0.0000
    33 H2'        121.8282   122.9490   148.1110 H            1 ADP500   0.0000
    34 H7         122.5222   121.6139   149.6730 H            1 ADP500   0.0000
    35 H1'        124.1833   124.4101   148.6833 H            1 ADP500   0.0000
    36 H9         121.1268   125.4699   146.7825 H            1 ADP500   0.0000
    37 H10        119.9414   129.2778   151.5666 H            1 ADP500   0.0000
    38 H11        119.4446   128.7636   149.9890 H            1 ADP500   0.0000
    39 H12        123.6066   126.8169   152.5155 H            1 ADP500   0.0000
@<TRIPOS>BOND
     1    1    2      ar
     2    1    3      ar
     3    1    4      ar
     4    1    8       1
     5    5    6      ar
     6    5    7      ar
     7    5    8       1
     8    5    9       1
     9    9   10       1
    10   10   11       1
    11   11   12       1
    12   11   13       1
    13   12   17       1
    14   13   14       1
    15   13   15       1
    16   15   16       1
    17   15   17       1
    18   17   18       1
    19   18   19       1
    20   18   27       1
    21   19   20       2
    22   20   21       1
    23   21   22      ar
    24   21   27      ar
    25   22   23       1
    26   22   24      ar
    27   24   25      ar
    28   25   26      ar
    29   26   27      ar
    30   25   39       1
    31   23   38       1
    32   23   37       1
    33   10   28       1
    34   10   29       1
    35   11   30       1
    36   13   31       1
    37   14   32       1
    38   15   33       1
    39   16   34       1
    40   17   35       1
    41   19   36       1
@<TRIPOS>SUBSTRUCTURE
     1 ADP500      1 GROUP             4 A     ADP     0 **** ADP A 500
