@<TRIPOS>MOLECULE
1qiv_DPD_2_ligand
   88    90     1     0     0
SMALL
NO_CHARGES


@<TRIPOS>ATOM
     1 C11         14.9090     7.1350    10.7160 C.ar         1 DPD154   0.0000
     2 C12         15.9980     7.0580     9.8180 C.ar         1 DPD154   0.0000
     3 C13         16.0240     7.8190     8.6370 C.ar         1 DPD154   0.0000
     4 C14         14.9590     8.6720     8.3320 C.ar         1 DPD154   0.0000
     5 C15         13.8710     8.7620     9.2100 C.ar         1 DPD154   0.0000
     6 C16         13.8490     8.0000    10.3890 C.ar         1 DPD154   0.0000
     7 C21         15.7440     5.0570    11.8470 C.ar         1 DPD154   0.0000
     8 C22         17.0970     5.0540    12.2480 C.ar         1 DPD154   0.0000
     9 C23         17.8920     3.9080    12.0940 C.ar         1 DPD154   0.0000
    10 C24         17.3480     2.7420    11.5350 C.ar         1 DPD154   0.0000
    11 C25         16.0070     2.7260    11.1310 C.ar         1 DPD154   0.0000
    12 C26         15.2120     3.8740    11.2860 C.ar         1 DPD154   0.0000
    13 C1          14.8750     6.3010    12.0070 C.3          1 DPD154   0.0000
    14 C2          15.2530     7.1570    13.2380 C.3          1 DPD154   0.0000
    15 C3          15.1940     6.4530    14.6090 C.3          1 DPD154   0.0000
    16 N4          16.3670     6.6720    15.4940 N.4          1 DPD154   1.0000
    17 C5          17.1110     7.9460    15.3360 C.3          1 DPD154   0.0000
    18 C6          17.8390     8.4130    16.6070 C.3          1 DPD154   0.0000
    19 C7          19.3420     8.6820    16.4020 C.3          1 DPD154   0.0000
    20 N8          20.1290     7.4940    15.9820 N.4          1 DPD154   1.0000
    21 C9          20.2900     6.3770    16.9520 C.3          1 DPD154   0.0000
    22 C19         21.7700     5.9960    17.1830 C.3          1 DPD154   0.0000
    23 C31         19.4540     5.1650    16.5290 C.ar         1 DPD154   0.0000
    24 C32         19.9250     4.2530    15.5550 C.ar         1 DPD154   0.0000
    25 C33         19.1750     3.1310    15.1510 C.ar         1 DPD154   0.0000
    26 C34         17.8880     2.8830    15.7320 C.ar         1 DPD154   0.0000
    27 C35         17.4280     3.8030    16.7080 C.ar         1 DPD154   0.0000
    28 C36         18.1860     4.9140    17.1010 C.ar         1 DPD154   0.0000
    29 O3          19.7810     2.3430    14.1910 O.3          1 DPD154   0.0000
    30 C41         19.7120     0.9200    14.2510 C.3          1 DPD154   0.0000
    31 C42         19.3970     0.3140    12.8780 C.3          1 DPD154   0.0000
    32 C43         20.6430    -0.1650    12.1310 C.3          1 DPD154   0.0000
    33 C44         20.3240    -0.9320    10.8460 C.3          1 DPD154   0.0000
    34 O4          17.1100     1.8020    15.3750 O.3          1 DPD154   0.0000
    35 C51         15.6890     1.8620    15.4370 C.3          1 DPD154   0.0000
    36 C52         15.0650     0.6100    14.8090 C.3          1 DPD154   0.0000
    37 C53         13.6020     0.7990    14.3700 C.3          1 DPD154   0.0000
    38 C54         13.3530     0.4540    12.8960 C.3          1 DPD154   0.0000
    39 H1          16.7643     6.4505    10.0271 H            1 DPD154   0.0000
    40 H2          16.8039     7.7505     8.0149 H            1 DPD154   0.0000
    41 H3          14.9738     9.2146     7.4921 H            1 DPD154   0.0000
    42 H4          13.1073     9.3712     8.9962 H            1 DPD154   0.0000
    43 H5          13.0662     8.0735    11.0070 H            1 DPD154   0.0000
    44 H6          17.4947     5.8800    12.6474 H            1 DPD154   0.0000
    45 H7          18.8491     3.9225    12.3836 H            1 DPD154   0.0000
    46 H8          17.9152     1.9258    11.4254 H            1 DPD154   0.0000
    47 H9          15.6152     1.8970    10.7320 H            1 DPD154   0.0000
    48 H10         14.2555     3.8537    10.9950 H            1 DPD154   0.0000
    49 H11         13.9330     5.9917    12.1371 H            1 DPD154   0.0000
    50 H12         14.6278     7.9368    13.2696 H            1 DPD154   0.0000
    51 H13         16.1883     7.4848    13.1046 H            1 DPD154   0.0000
    52 H14         15.1104     5.4698    14.4467 H            1 DPD154   0.0000
    53 H15         14.3808     6.7819    15.0890 H            1 DPD154   0.0000
    54 H16         17.0114     5.9254    15.3286 H            1 DPD154   0.0000
    55 H17         16.4613     8.6572    15.0676 H            1 DPD154   0.0000
    56 H18         17.7903     7.8247    14.6123 H            1 DPD154   0.0000
    57 H19         17.7383     7.7048    17.3058 H            1 DPD154   0.0000
    58 H20         17.4083     9.2579    16.9242 H            1 DPD154   0.0000
    59 H21         19.7197     9.0177    17.2649 H            1 DPD154   0.0000
    60 H22         19.4402     9.3862    15.6988 H            1 DPD154   0.0000
    61 H23         21.0459     7.8148    15.7447 H            1 DPD154   0.0000
    62 H24         19.9272     6.6935    17.8285 H            1 DPD154   0.0000
    63 H25         21.8220     5.2439    17.8400 H            1 DPD154   0.0000
    64 H26         22.1799     5.7106    16.3166 H            1 DPD154   0.0000
    65 H27         22.2657     6.7869    17.5418 H            1 DPD154   0.0000
    66 H28         20.8208     4.4103    15.1393 H            1 DPD154   0.0000
    67 H29         16.5335     3.6541    17.1296 H            1 DPD154   0.0000
    68 H30         17.8253     5.5372    17.7949 H            1 DPD154   0.0000
    69 H31         18.9938     0.6564    14.8950 H            1 DPD154   0.0000
    70 H32         20.5913     0.5652    14.5688 H            1 DPD154   0.0000
    71 H33         18.9399     1.0079    12.3216 H            1 DPD154   0.0000
    72 H34         18.7846    -0.4659    13.0076 H            1 DPD154   0.0000
    73 H35         21.1648    -0.7653    12.7372 H            1 DPD154   0.0000
    74 H36         21.1971     0.6331    11.8945 H            1 DPD154   0.0000
    75 H37         21.1764    -1.2162    10.4071 H            1 DPD154   0.0000
    76 H38         19.7774    -1.7397    11.0669 H            1 DPD154   0.0000
    77 H39         19.8097    -0.3413    10.2242 H            1 DPD154   0.0000
    78 H40         15.3727     2.6705    14.9407 H            1 DPD154   0.0000
    79 H41         15.4047     1.9258    16.3936 H            1 DPD154   0.0000
    80 H42         15.0996    -0.1303    15.4804 H            1 DPD154   0.0000
    81 H43         15.6050     0.3574    14.0062 H            1 DPD154   0.0000
    82 H44         13.3486     1.7550    14.5180 H            1 DPD154   0.0000
    83 H45         13.0240     0.2097    14.9345 H            1 DPD154   0.0000
    84 H46         12.3877     0.5981    12.6784 H            1 DPD154   0.0000
    85 H47         13.9168     1.0421    12.3162 H            1 DPD154   0.0000
    86 H48         13.5922    -0.5031    12.7327 H            1 DPD154   0.0000
    87 H49         16.0424     6.6290    16.4389 H            1 DPD154   0.0000
    88 H50         19.6863     7.1180    15.1680 H            1 DPD154   0.0000
@<TRIPOS>BOND
     1    1    2      ar
     2    1    6      ar
     3    1   13       1
     4    2    3      ar
     5    3    4      ar
     6    4    5      ar
     7    5    6      ar
     8    7    8      ar
     9    7   12      ar
    10    7   13       1
    11    8    9      ar
    12    9   10      ar
    13   10   11      ar
    14   11   12      ar
    15   13   14       1
    16   14   15       1
    17   15   16       1
    18   16   17       1
    19   17   18       1
    20   18   19       1
    21   19   20       1
    22   20   21       1
    23   21   22       1
    24   21   23       1
    25   23   24      ar
    26   23   28      ar
    27   24   25      ar
    28   25   26      ar
    29   25   29       1
    30   26   27      ar
    31   26   34       1
    32   27   28      ar
    33   29   30       1
    34   30   31       1
    35   31   32       1
    36   32   33       1
    37   34   35       1
    38   35   36       1
    39   36   37       1
    40   37   38       1
    41    2   39       1
    42    3   40       1
    43    4   41       1
    44    5   42       1
    45    6   43       1
    46    8   44       1
    47    9   45       1
    48   10   46       1
    49   11   47       1
    50   12   48       1
    51   13   49       1
    52   14   50       1
    53   14   51       1
    54   15   52       1
    55   15   53       1
    56   16   54       1
    57   17   55       1
    58   17   56       1
    59   18   57       1
    60   18   58       1
    61   19   59       1
    62   19   60       1
    63   20   61       1
    64   21   62       1
    65   22   63       1
    66   22   64       1
    67   22   65       1
    68   24   66       1
    69   27   67       1
    70   28   68       1
    71   30   69       1
    72   30   70       1
    73   31   71       1
    74   31   72       1
    75   32   73       1
    76   32   74       1
    77   33   75       1
    78   33   76       1
    79   33   77       1
    80   35   78       1
    81   35   79       1
    82   36   80       1
    83   36   81       1
    84   37   82       1
    85   37   83       1
    86   38   84       1
    87   38   85       1
    88   38   86       1
    89   16   87       1
    90   20   88       1
@<TRIPOS>SUBSTRUCTURE
     1 DPD154      1 GROUP             4 A     DPD     0 **** DPD A 154
