@<TRIPOS>MOLECULE
3d5w_ADP_1_ligand
   39    41     1     0     0
SMALL
NO_CHARGES


@<TRIPOS>ATOM
     1 PB          49.3320    22.8230    74.1510 P.3          1 ADP313   0.0000
     2 O1B         48.6510    23.6590    75.2100 O.co2        1 ADP313   0.0000
     3 O2B         50.8410    22.8110    74.2350 O.co2        1 ADP313  -1.0000
     4 O3B         48.8020    23.0370    72.7510 O.co2        1 ADP313  -1.0000
     5 PA          47.5650    20.6360    73.9630 P.3          1 ADP313   0.0000
     6 O1A         46.4630    21.6700    73.9850 O.co2        1 ADP313   0.0000
     7 O2A         47.9070    19.9270    72.6730 O.co2        1 ADP313  -1.0000
     8 O3A         48.9120    21.3140    74.5360 O.3          1 ADP313   0.0000
     9 O5'         47.2150    19.5210    75.0710 O.3          1 ADP313   0.0000
    10 C5'         48.1310    18.4710    75.3750 C.3          1 ADP313   0.0000
    11 C4'         47.7140    17.7780    76.6660 C.3          1 ADP313   0.0000
    12 O4'         47.3490    18.7480    77.6530 O.3          1 ADP313   0.0000
    13 C3'         46.5140    16.8690    76.4430 C.3          1 ADP313   0.0000
    14 O3'         46.9140    15.4950    76.4680 O.3          1 ADP313   0.0000
    15 C2'         45.5420    17.1910    77.5640 C.3          1 ADP313   0.0000
    16 O2'         45.4380    16.1060    78.4910 O.3          1 ADP313   0.0000
    17 C1'         46.1000    18.4200    78.2720 C.3          1 ADP313   0.0000
    18 N9          45.1340    19.5460    78.1550 N.pl3        1 ADP313   0.0000
    19 C8          45.2230    20.5880    77.3060 C.2          1 ADP313   0.0000
    20 N7          44.1740    21.4380    77.4530 N.2          1 ADP313   0.0000
    21 C5          43.3850    20.9380    78.4200 C.ar         1 ADP313   0.0000
    22 C6          42.1130    21.3310    79.0780 C.ar         1 ADP313   0.0000
    23 N6          41.4590    22.4620    78.7190 N.pl3        1 ADP313   0.0000
    24 N1          41.6260    20.5210    80.0490 N.ar         1 ADP313   0.0000
    25 C2          42.2640    19.3920    80.4210 C.ar         1 ADP313   0.0000
    26 N3          43.4190    18.9760    79.8670 N.ar         1 ADP313   0.0000
    27 C4          44.0200    19.6910    78.8800 C.ar         1 ADP313   0.0000
    28 H5'1        49.0487    18.8528    75.4849 H            1 ADP313   0.0000
    29 H5'2        48.1338    17.8065    74.6277 H            1 ADP313   0.0000
    30 H4'         48.4795    17.2332    77.0083 H            1 ADP313   0.0000
    31 H3'         46.0919    17.0800    75.5614 H            1 ADP313   0.0000
    32 H5          46.6927    15.0674    75.5915 H            1 ADP313   0.0000
    33 H2'         44.6412    17.3989    77.1827 H            1 ADP313   0.0000
    34 H7          46.0351    15.3591    78.1983 H            1 ADP313   0.0000
    35 H1'         46.2513    18.2090    79.2377 H            1 ADP313   0.0000
    36 H9          45.9669    20.7190    76.6507 H            1 ADP313   0.0000
    37 H10         40.6036    22.7105    79.1734 H            1 ADP313   0.0000
    38 H11         41.8318    23.0482    77.9997 H            1 ADP313   0.0000
    39 H12         41.8583    18.8351    81.1457 H            1 ADP313   0.0000
@<TRIPOS>BOND
     1    1    2      ar
     2    1    3      ar
     3    1    4      ar
     4    1    8       1
     5    5    6      ar
     6    5    7      ar
     7    5    8       1
     8    5    9       1
     9    9   10       1
    10   10   11       1
    11   11   12       1
    12   11   13       1
    13   12   17       1
    14   13   14       1
    15   13   15       1
    16   15   16       1
    17   15   17       1
    18   17   18       1
    19   18   19       1
    20   18   27       1
    21   19   20       2
    22   20   21       1
    23   21   22      ar
    24   21   27      ar
    25   22   23       1
    26   22   24      ar
    27   24   25      ar
    28   25   26      ar
    29   26   27      ar
    30   25   39       1
    31   23   38       1
    32   23   37       1
    33   10   28       1
    34   10   29       1
    35   11   30       1
    36   13   31       1
    37   14   32       1
    38   15   33       1
    39   16   34       1
    40   17   35       1
    41   19   36       1
@<TRIPOS>SUBSTRUCTURE
     1 ADP313      1 GROUP             4 A     ADP     0 **** ADP A 313
