@<TRIPOS>MOLECULE
4phl_PIL_2_ligand
   41    43     1     0     0
SMALL
NO_CHARGES


@<TRIPOS>ATOM
     1 CL25         7.0770    68.9930    70.7770 Cl           1 PIL1003   0.0000
     2 C24          8.3520    67.8630    70.4600 C.ar         1 PIL1003   0.0000
     3 C23          8.6150    66.8310    71.3540 C.ar         1 PIL1003   0.0000
     4 N22          9.6050    65.9470    71.0890 N.ar         1 PIL1003   0.0000
     5 C21         10.3450    66.0700    69.9560 C.ar         1 PIL1003   0.0000
     6 C19         10.0790    67.1040    69.0720 C.ar         1 PIL1003   0.0000
     7 CL20        11.0320    67.2280    67.6380 Cl           1 PIL1003   0.0000
     8 C18          9.0930    68.0080    69.3250 C.ar         1 PIL1003   0.0000
     9 N16          8.7550    69.0890    68.4300 N.am         1 PIL1003   0.0000
    10 C15          9.1060    70.4770    68.6120 C.2          1 PIL1003   0.0000
    11 O17          9.7400    70.9040    69.5580 O.2          1 PIL1003   0.0000
    12 C14          8.5800    71.4260    67.5580 C.ar         1 PIL1003   0.0000
    13 C13          8.1700    70.8770    66.3690 C.ar         1 PIL1003   0.0000
    14 C12          7.6570    71.7050    65.3850 C.ar         1 PIL1003   0.0000
    15 C9           7.5380    73.0750    65.6060 C.ar         1 PIL1003   0.0000
    16 O10          6.9840    73.8340    64.5520 O.3          1 PIL1003   0.0000
    17 C11          5.9850    73.0490    63.9140 C.3          1 PIL1003   0.0000
    18 C2           7.9340    73.6340    66.8170 C.ar         1 PIL1003   0.0000
    19 C1           8.4580    72.7920    67.8020 C.ar         1 PIL1003   0.0000
    20 O3           7.8210    75.0290    67.0540 O.3          1 PIL1003   0.0000
    21 C4           7.5760    75.2760    68.4700 C.3          1 PIL1003   0.0000
    22 C5           6.2490    76.0040    68.6450 C.3          1 PIL1003   0.0000
    23 C6           6.6540    77.5080    69.1450 C.3          1 PIL1003   0.0000
    24 C7           8.2510    77.4230    69.3700 C.2          1 PIL1003   0.0000
    25 C8           8.6200    76.0850    68.9950 C.2          1 PIL1003   0.0000
    26 H1           8.0742    66.7422    72.1904 H            1 PIL1003   0.0000
    27 H2          11.0777    65.4180    69.7610 H            1 PIL1003   0.0000
    28 H3           8.2310    68.8553    67.6110 H            1 PIL1003   0.0000
    29 H4           8.2408    69.8914    66.2152 H            1 PIL1003   0.0000
    30 H5           7.3699    71.3166    64.5094 H            1 PIL1003   0.0000
    31 H6           5.5802    73.5708    63.1631 H            1 PIL1003   0.0000
    32 H7           6.3979    72.2124    63.5540 H            1 PIL1003   0.0000
    33 H8           5.2742    72.8117    64.5762 H            1 PIL1003   0.0000
    34 H9           8.7453    73.1703    68.6820 H            1 PIL1003   0.0000
    35 H10          7.5476    74.4056    68.9616 H            1 PIL1003   0.0000
    36 H11          5.6844    75.5456    69.3314 H            1 PIL1003   0.0000
    37 H12          5.7528    76.0437    67.7777 H            1 PIL1003   0.0000
    38 H13          6.1859    77.7378    69.9983 H            1 PIL1003   0.0000
    39 H14          6.4283    78.1880    68.4474 H            1 PIL1003   0.0000
    40 H15          8.8555    78.1479    69.7004 H            1 PIL1003   0.0000
    41 H16          9.5546    75.7442    69.0974 H            1 PIL1003   0.0000
@<TRIPOS>BOND
     1    1    2       1
     2    2    3      ar
     3    2    8      ar
     4    3    4      ar
     5    4    5      ar
     6    5    6      ar
     7    6    7       1
     8    6    8      ar
     9    8    9       1
    10    9   10      am
    11   10   11       2
    12   10   12       1
    13   12   13      ar
    14   12   19      ar
    15   13   14      ar
    16   14   15      ar
    17   15   16       1
    18   15   18      ar
    19   16   17       1
    20   18   19      ar
    21   18   20       1
    22   20   21       1
    23   21   22       1
    24   21   25       1
    25   22   23       1
    26   23   24       1
    27   24   25       2
    28    3   26       1
    29    5   27       1
    30    9   28       1
    31   13   29       1
    32   14   30       1
    33   17   31       1
    34   17   32       1
    35   17   33       1
    36   19   34       1
    37   21   35       1
    38   22   36       1
    39   22   37       1
    40   23   38       1
    41   23   39       1
    42   24   40       1
    43   25   41       1
@<TRIPOS>SUBSTRUCTURE
     1 PIL1003     1 GROUP             4 B     PIL     0 **** PIL B1003
