@<TRIPOS>MOLECULE
1gjv_AGS_1_ligand
   43    45     1     0     0
SMALL
NO_CHARGES


@<TRIPOS>ATOM
     1 PG          93.5620   124.3400    34.8810 P.3          1 AGS1383   0.0000
     2 S1G         93.7670   125.8340    35.0660 S.2          1 AGS1383   0.0000
     3 O2G         94.3490   123.4020    35.7420 O.co2        1 AGS1383  -1.0000
     4 O3G         92.1760   123.7700    35.0530 O.co2        1 AGS1383  -1.0000
     5 PB          94.7840   122.7700    32.7500 P.3          1 AGS1383   0.0000
     6 O1B         94.9590   123.0440    31.3080 O.co2        1 AGS1383   0.0000
     7 O2B         94.1780   121.4850    33.1800 O.co2        1 AGS1383  -1.0000
     8 O3B         93.9690   123.9910    33.3720 O.3          1 AGS1383   0.0000
     9 PA          97.3080   122.1040    34.0780 P.3          1 AGS1383   0.0000
    10 O1A         96.6990   121.1570    35.0450 O.co2        1 AGS1383   0.0000
    11 O2A         98.4850   122.8930    34.4800 O.co2        1 AGS1383  -1.0000
    12 O3A         96.1740   123.0640    33.4900 O.3          1 AGS1383   0.0000
    13 O5'         97.5980   121.2660    32.7570 O.3          1 AGS1383   0.0000
    14 C5'         98.5960   121.6450    31.8220 C.3          1 AGS1383   0.0000
    15 C4'         98.4380   120.8290    30.5650 C.3          1 AGS1383   0.0000
    16 O4'         99.1410   119.5570    30.7050 O.3          1 AGS1383   0.0000
    17 C3'         97.0050   120.4280    30.2650 C.3          1 AGS1383   0.0000
    18 O3'         96.3580   121.4790    29.5720 O.3          1 AGS1383   0.0000
    19 C2'         97.1850   119.1880    29.3980 C.3          1 AGS1383   0.0000
    20 O2'         97.5160   119.5170    28.0680 O.3          1 AGS1383   0.0000
    21 C1'         98.4050   118.5300    30.0470 C.3          1 AGS1383   0.0000
    22 N9          98.0930   117.4640    31.0100 N.pl3        1 AGS1383   0.0000
    23 C8          97.9970   117.5530    32.3850 C.2          1 AGS1383   0.0000
    24 N7          97.7180   116.4120    32.9700 N.2          1 AGS1383   0.0000
    25 C5          97.6220   115.5120    31.9200 C.ar         1 AGS1383   0.0000
    26 C6          97.3560   114.1420    31.8800 C.ar         1 AGS1383   0.0000
    27 N6          97.1430   113.3960    32.9670 N.pl3        1 AGS1383   0.0000
    28 N1          97.3220   113.5450    30.6680 N.ar         1 AGS1383   0.0000
    29 C2          97.5580   114.2830    29.5840 C.ar         1 AGS1383   0.0000
    30 N3          97.8320   115.5770    29.4910 N.ar         1 AGS1383   0.0000
    31 C4          97.8450   116.1440    30.7060 C.ar         1 AGS1383   0.0000
    32 H5'1        99.5009   121.4812    32.2148 H            1 AGS1383   0.0000
    33 H5'2        98.4979   122.6161    31.6042 H            1 AGS1383   0.0000
    34 H4'         98.8134   121.3349    29.7884 H            1 AGS1383   0.0000
    35 H3'         96.5152   120.2040    31.1076 H            1 AGS1383   0.0000
    36 H5          95.9297   122.0982    30.2301 H            1 AGS1383   0.0000
    37 H2'         96.3826   118.5927    29.4392 H            1 AGS1383   0.0000
    38 H7          98.3722   120.0335    28.0556 H            1 AGS1383   0.0000
    39 H1'         98.9781   118.1445    29.3238 H            1 AGS1383   0.0000
    40 H9          98.1279   118.4074    32.8879 H            1 AGS1383   0.0000
    41 H10         96.9571   112.4179    32.8736 H            1 AGS1383   0.0000
    42 H11         97.1694   113.8155    33.8744 H            1 AGS1383   0.0000
    43 H12         97.5235   113.7896    28.7149 H            1 AGS1383   0.0000
@<TRIPOS>BOND
     1    1    2       2
     2    1    3      ar
     3    1    4      ar
     4    1    8       1
     5    5    6      ar
     6    5    7      ar
     7    5    8       1
     8    5   12       1
     9    9   10      ar
    10    9   11      ar
    11    9   12       1
    12    9   13       1
    13   13   14       1
    14   14   15       1
    15   15   16       1
    16   15   17       1
    17   16   21       1
    18   17   18       1
    19   17   19       1
    20   19   20       1
    21   19   21       1
    22   21   22       1
    23   22   23       1
    24   22   31       1
    25   23   24       2
    26   24   25       1
    27   25   26      ar
    28   25   31      ar
    29   26   27       1
    30   26   28      ar
    31   28   29      ar
    32   29   30      ar
    33   30   31      ar
    34   29   43       1
    35   27   42       1
    36   27   41       1
    37   23   40       1
    38   14   32       1
    39   14   33       1
    40   15   34       1
    41   17   35       1
    42   18   36       1
    43   19   37       1
    44   20   38       1
    45   21   39       1
@<TRIPOS>SUBSTRUCTURE
     1 AGS1383     1 GROUP             4 A     AGS     0 **** AGS A1383
