@<TRIPOS>MOLECULE
4ubt_COA_4_ligand
   80    82     1     0     0
SMALL
NO_CHARGES


@<TRIPOS>ATOM
     1 N1A        -40.3170    -7.7560    49.6760 N.ar         1 COA401   0.0000
     2 C2A        -41.1560    -8.5830    48.9940 C.ar         1 COA401   0.0000
     3 N3A        -42.4170    -8.8070    49.4310 N.ar         1 COA401   0.0000
     4 C4A        -42.8960    -8.2070    50.5850 C.ar         1 COA401   0.0000
     5 C5A        -42.0570    -7.3510    51.3120 C.ar         1 COA401   0.0000
     6 C6A        -40.7310    -7.1310    50.8160 C.ar         1 COA401   0.0000
     7 N6A        -39.7990    -6.2600    51.5400 N.pl3        1 COA401   0.0000
     8 N7A        -42.7730    -6.8990    52.3950 N.2          1 COA401   0.0000
     9 C8A        -44.0150    -7.4460    52.3530 C.2          1 COA401   0.0000
    10 N9A        -44.0980    -8.2380    51.2600 N.pl3        1 COA401   0.0000
    11 C1B        -45.2410    -9.0140    50.8350 C.3          1 COA401   0.0000
    12 C2B        -45.6850   -10.0290    51.8190 C.3          1 COA401   0.0000
    13 O2B        -45.0260   -11.2420    51.6080 O.3          1 COA401   0.0000
    14 C3B        -47.0630   -10.1820    51.5710 C.3          1 COA401   0.0000
    15 O3B        -47.2900   -11.1690    50.5650 O.3          1 COA401   0.0000
    16 P3B        -48.4940   -12.2130    50.7420 P.3          1 COA401   0.0000
    17 O7A        -49.0000   -12.6300    49.3760 O.co2        1 COA401   0.0000
    18 O8A        -48.0080   -13.4320    51.4660 O.co2        1 COA401  -1.0000
    19 O9A        -49.6210   -11.5730    51.5110 O.co2        1 COA401  -1.0000
    20 C4B        -47.5000    -8.8680    51.1250 C.3          1 COA401   0.0000
    21 O4B        -46.3940    -8.2070    50.6440 O.3          1 COA401   0.0000
    22 C5B        -48.0530    -8.1330    52.2900 C.3          1 COA401   0.0000
    23 O5B        -47.2410    -8.0850    53.4090 O.3          1 COA401   0.0000
    24 P1A        -47.8760    -8.1620    54.8610 P.3          1 COA401   0.0000
    25 O1A        -46.7770    -8.4160    55.8530 O.co2        1 COA401   0.0000
    26 O2A        -48.9070    -9.2790    54.9240 O.co2        1 COA401  -1.0000
    27 O3A        -48.5380    -6.7850    55.1870 O.3          1 COA401   0.0000
    28 P2A        -50.0800    -6.5890    55.1910 P.3          1 COA401   0.0000
    29 O4A        -50.7320    -7.5490    56.1630 O.co2        1 COA401   0.0000
    30 O5A        -50.6540    -6.7760    53.7960 O.co2        1 COA401  -1.0000
    31 O6A        -50.3390    -5.1200    55.6530 O.3          1 COA401   0.0000
    32 CBP        -49.7950    -2.7450    55.5890 C.3          1 COA401   0.0000
    33 CCP        -49.4940    -4.1430    55.1640 C.3          1 COA401   0.0000
    34 CDP        -51.2730    -2.4270    55.2100 C.3          1 COA401   0.0000
    35 CEP        -48.8340    -1.7860    54.8430 C.3          1 COA401   0.0000
    36 CAP        -49.5910    -2.6420    57.1080 C.3          1 COA401   0.0000
    37 OAP        -48.2810    -2.8070    57.4700 O.3          1 COA401   0.0000
    38 C9P        -50.0030    -1.3410    57.7490 C.2          1 COA401   0.0000
    39 O9P        -51.1550    -1.0650    57.8250 O.2          1 COA401   0.0000
    40 N8P        -48.8910    -0.4930    58.1960 N.am         1 COA401   0.0000
    41 C7P        -49.1240     0.7950    58.8310 C.3          1 COA401   0.0000
    42 C6P        -49.8790     0.7750    60.1090 C.3          1 COA401   0.0000
    43 C5P        -50.1640     2.1890    60.6300 C.2          1 COA401   0.0000
    44 O5P        -51.1750     2.7900    60.2540 O.2          1 COA401   0.0000
    45 N4P        -49.2270     2.8080    61.5360 N.am         1 COA401   0.0000
    46 C3P        -49.4740     4.1380    61.9960 C.3          1 COA401   0.0000
    47 C2P        -48.9480     5.2120    61.1230 C.3          1 COA401   0.0000
    48 S1P        -47.8310     6.3360    61.8200 S.3          1 COA401   0.0000
    49 H2A        -40.8363    -9.0309    48.1590 H            1 COA401   0.0000
    50 H6A1       -40.0937    -5.7979    52.3764 H            1 COA401   0.0000
    51 H6A2       -38.8689    -6.1283    51.1972 H            1 COA401   0.0000
    52 H8A        -44.7452    -7.2896    53.0181 H            1 COA401   0.0000
    53 H1B        -45.0198    -9.4722    49.9741 H            1 COA401   0.0000
    54 H2B        -45.5307    -9.7038    52.7520 H            1 COA401   0.0000
    55 H7         -45.5543   -11.8017    50.9696 H            1 COA401   0.0000
    56 H3B        -47.5381   -10.4346    52.4139 H            1 COA401   0.0000
    57 H4B        -48.1920    -8.9559    50.4085 H            1 COA401   0.0000
    58 H5B1       -48.9116    -8.5737    52.5520 H            1 COA401   0.0000
    59 H5B2       -48.2352    -7.1929    52.0019 H            1 COA401   0.0000
    60 HCP1       -49.5352    -4.1747    54.1654 H            1 COA401   0.0000
    61 HCP2       -48.5662    -4.3616    55.4664 H            1 COA401   0.0000
    62 HDP1       -51.4945    -1.4921    55.4874 H            1 COA401   0.0000
    63 HDP2       -51.3905    -2.5180    54.2211 H            1 COA401   0.0000
    64 HDP3       -51.8823    -3.0669    55.6783 H            1 COA401   0.0000
    65 HEP1       -49.0239    -0.8435    55.1179 H            1 COA401   0.0000
    66 HEP2       -47.8884    -2.0163    55.0729 H            1 COA401   0.0000
    67 HEP3       -48.9694    -1.8792    53.8566 H            1 COA401   0.0000
    68 HAP        -50.1202    -3.3741    57.5369 H            1 COA401   0.0000
    69 H21        -48.2008    -3.5940    58.0817 H            1 COA401   0.0000
    70 H8P        -47.9516    -0.8081    58.0608 H            1 COA401   0.0000
    71 H7P1       -49.6334     1.3644    58.1858 H            1 COA401   0.0000
    72 H7P2       -48.2326     1.2110    59.0109 H            1 COA401   0.0000
    73 H6P1       -49.3426     0.2808    60.7932 H            1 COA401   0.0000
    74 H6P2       -50.7486     0.3034    59.9629 H            1 COA401   0.0000
    75 H4P        -48.4135     2.3115    61.8387 H            1 COA401   0.0000
    76 H3P1       -49.0528     4.2373    62.8975 H            1 COA401   0.0000
    77 H3P2       -50.4634     4.2597    62.0752 H            1 COA401   0.0000
    78 H2P1       -49.7311     5.7365    60.7890 H            1 COA401   0.0000
    79 H2P2       -48.4879     4.7722    60.3517 H            1 COA401   0.0000
    80 H1P        -47.3092     5.8827    62.5427 H            1 COA401   0.0000
@<TRIPOS>BOND
     1    1    2      ar
     2    1    6      ar
     3    2    3      ar
     4    3    4      ar
     5    4    5      ar
     6    4   10       1
     7    5    6      ar
     8    5    8       1
     9    6    7       1
    10    8    9       2
    11    9   10       1
    12   10   11       1
    13   11   12       1
    14   11   21       1
    15   12   13       1
    16   12   14       1
    17   14   15       1
    18   14   20       1
    19   15   16       1
    20   16   17      ar
    21   16   18      ar
    22   16   19      ar
    23   20   21       1
    24   20   22       1
    25   22   23       1
    26   23   24       1
    27   24   25      ar
    28   24   26      ar
    29   24   27       1
    30   27   28       1
    31   28   29      ar
    32   28   30      ar
    33   28   31       1
    34   31   33       1
    35   32   33       1
    36   32   34       1
    37   32   35       1
    38   32   36       1
    39   36   37       1
    40   36   38       1
    41   38   39       2
    42   38   40      am
    43   40   41       1
    44   41   42       1
    45   42   43       1
    46   43   44       2
    47   43   45      am
    48   45   46       1
    49   46   47       1
    50   47   48       1
    51    2   49       1
    52    7   50       1
    53    7   51       1
    54    9   52       1
    55   11   53       1
    56   12   54       1
    57   13   55       1
    58   14   56       1
    59   48   80       1
    60   47   79       1
    61   20   57       1
    62   22   58       1
    63   22   59       1
    64   47   78       1
    65   46   77       1
    66   33   60       1
    67   33   61       1
    68   34   62       1
    69   34   63       1
    70   34   64       1
    71   35   65       1
    72   35   66       1
    73   35   67       1
    74   36   68       1
    75   37   69       1
    76   40   70       1
    77   41   71       1
    78   41   72       1
    79   42   73       1
    80   42   74       1
    81   45   75       1
    82   46   76       1
@<TRIPOS>SUBSTRUCTURE
     1 COA401      1 GROUP             4 D     COA     0 **** COA D 401
