@<TRIPOS>MOLECULE
4aza_MGO_1_ligand
   49    51     1     0     0
SMALL
NO_CHARGES


@<TRIPOS>ATOM
     1 OAJ        -17.1700     7.4260   -27.2840 O.co2        1 MGO1218   0.0000
     2 PBE        -17.8660     8.4360   -26.2090 P.3          1 MGO1218   0.0000
     3 OAD        -19.4140     7.9450   -26.1500 O.co2        1 MGO1218  -1.0000
     4 OAI        -17.7550     9.8820   -26.5740 O.co2        1 MGO1218  -1.0000
     5 OAS        -17.1900     8.1120   -24.7920 O.3          1 MGO1218   0.0000
     6 PBG        -18.0840     7.7970   -23.5180 P.3          1 MGO1218   0.0000
     7 OAL        -16.9880     7.7210   -22.3370 O.co2        1 MGO1218   0.0000
     8 OAF        -19.1280     8.8250   -23.2820 O.co2        1 MGO1218  -1.0000
     9 OAT        -18.6740     6.3280   -23.7900 O.3          1 MGO1218   0.0000
    10 PBF        -17.9620     4.9680   -23.3290 P.3          1 MGO1218   0.0000
    11 OAK        -19.0910     3.8740   -23.6010 O.co2        1 MGO1218   0.0000
    12 OAE        -17.5300     4.9590   -21.9090 O.co2        1 MGO1218  -1.0000
    13 O5'        -16.7830     4.6810   -24.3980 O.3          1 MGO1218   0.0000
    14 C5'        -15.4700     5.2140   -24.2230 C.3          1 MGO1218   0.0000
    15 C4'        -14.4480     4.1880   -24.6970 C.3          1 MGO1218   0.0000
    16 O4'        -14.4580     3.0450   -23.7850 O.3          1 MGO1218   0.0000
    17 C3'        -14.8640     3.5870   -26.0390 C.3          1 MGO1218   0.0000
    18 O3'        -14.4550     4.4070   -27.1360 O.3          1 MGO1218   0.0000
    19 C2'        -14.0760     2.3080   -26.0320 C.3          1 MGO1218   0.0000
    20 O2'        -12.6960     2.5620   -26.3460 O.3          1 MGO1218   0.0000
    21 C1'        -14.2010     1.8560   -24.5700 C.3          1 MGO1218   0.0000
    22 NBC        -15.3290     0.8680   -24.4060 N.2          1 MGO1218   1.0000
    23 CAN        -16.5540     1.1190   -23.9540 C.2          1 MGO1218   0.0000
    24 NBD        -17.2440    -0.0150   -23.9660 N.pl3        1 MGO1218   0.0000
    25 CAA        -18.6740    -0.0630   -23.5160 C.3          1 MGO1218   0.0000
    26 CAX        -16.4510    -0.9880   -24.4190 C.2          1 MGO1218   0.0000
    27 CAW        -15.2620    -0.4280   -24.6930 C.2          1 MGO1218   0.0000
    28 CAM        -14.2410    -1.1400   -25.1730 C.2          1 MGO1218   0.0000
    29 CAU        -14.3710    -2.4980   -25.4080 C.2          1 MGO1218   0.0000
    30 NAB        -13.3440    -3.1890   -25.8910 N.pl3        1 MGO1218   0.0000
    31 NAP        -15.6050    -3.1040   -25.1360 N.pl3        1 MGO1218   0.0000
    32 CAV        -16.6520    -2.3080   -24.6260 C.2          1 MGO1218   0.0000
    33 OAC        -17.7290    -2.8480   -24.3810 O.2          1 MGO1218   0.0000
    34 H5'1       -15.3171     5.4167   -23.2558 H            1 MGO1218   0.0000
    35 H5'2       -15.3752     6.0532   -24.7585 H            1 MGO1218   0.0000
    36 H4'        -13.5351     4.5923   -24.7538 H            1 MGO1218   0.0000
    37 H3'        -15.8473     3.4073   -26.0670 H            1 MGO1218   0.0000
    38 H5         -13.8434     3.8862   -27.7316 H            1 MGO1218   0.0000
    39 H2'        -14.4722     1.6340   -26.6556 H            1 MGO1218   0.0000
    40 H7         -12.1200     1.8839   -25.8895 H            1 MGO1218   0.0000
    41 H1'        -13.3426     1.4374   -24.2737 H            1 MGO1218   0.0000
    42 HAN        -16.8969     2.0098   -23.6559 H            1 MGO1218   0.0000
    43 HAA1       -19.0181    -0.9983   -23.5983 H            1 MGO1218   0.0000
    44 HAA2       -18.7333     0.2313   -22.5621 H            1 MGO1218   0.0000
    45 HAA3       -19.2239     0.5460   -24.0876 H            1 MGO1218   0.0000
    46 HAM        -13.3706    -0.6869   -25.3655 H            1 MGO1218   0.0000
    47 HAB1       -13.4371    -4.1700   -26.0610 H            1 MGO1218   0.0000
    48 HAB2       -12.4779    -2.7280   -26.0845 H            1 MGO1218   0.0000
    49 HAP        -15.7406    -4.0811   -25.3001 H            1 MGO1218   0.0000
@<TRIPOS>BOND
     1    1    2      ar
     2    2    3      ar
     3    2    4      ar
     4    2    5       1
     5    5    6       1
     6    6    7      ar
     7    6    8      ar
     8    6    9       1
     9    9   10       1
    10   10   11      ar
    11   10   12      ar
    12   10   13       1
    13   13   14       1
    14   14   15       1
    15   15   16       1
    16   15   17       1
    17   16   21       1
    18   17   18       1
    19   17   19       1
    20   19   20       1
    21   19   21       1
    22   21   22       1
    23   22   23       2
    24   22   27       1
    25   23   24       1
    26   24   25       1
    27   24   26       1
    28   26   27       2
    29   26   32       1
    30   27   28       1
    31   28   29       2
    32   29   30       1
    33   29   31       1
    34   31   32       1
    35   32   33       2
    36   31   49       1
    37   30   48       1
    38   30   47       1
    39   28   46       1
    40   14   34       1
    41   14   35       1
    42   15   36       1
    43   17   37       1
    44   18   38       1
    45   19   39       1
    46   20   40       1
    47   21   41       1
    48   23   42       1
    49   25   43       1
    50   25   44       1
    51   25   45       1
@<TRIPOS>SUBSTRUCTURE
     1 MGO1218     1 GROUP             4 A     MGO     0 **** MGO A1218
