@<TRIPOS>MOLECULE
4nev_FAD_2_ligand
   84    89     1     0     0
SMALL
NO_CHARGES


@<TRIPOS>ATOM
     1 PA          17.8130     7.4660    16.5660 P.3          1 FAD501   0.0000
     2 O1A         18.9100     8.4680    16.3270 O.co2        1 FAD501   0.0000
     3 O2A         17.7720     6.1530    15.8310 O.co2        1 FAD501  -1.0000
     4 O5B         16.4180     8.1960    16.2540 O.3          1 FAD501   0.0000
     5 C5B         15.9680     9.2970    17.0370 C.3          1 FAD501   0.0000
     6 C4B         14.7910     9.9430    16.3150 C.3          1 FAD501   0.0000
     7 O4B         14.1630    10.9150    17.1430 O.3          1 FAD501   0.0000
     8 C3B         15.2070    10.6630    15.0380 C.3          1 FAD501   0.0000
     9 O3B         14.5810    10.0320    13.9220 O.3          1 FAD501   0.0000
    10 C2B         14.7320    12.0970    15.1990 C.3          1 FAD501   0.0000
    11 O2B         14.1520    12.6150    13.9950 O.3          1 FAD501   0.0000
    12 C1B         13.7190    11.9950    16.3270 C.3          1 FAD501   0.0000
    13 N9A         13.5850    13.2010    17.1730 N.pl3        1 FAD501   0.0000
    14 C8A         14.5650    14.0020    17.6380 C.2          1 FAD501   0.0000
    15 N7A         14.0460    14.9880    18.4100 N.2          1 FAD501   0.0000
    16 C5A         12.7130    14.8120    18.4560 C.ar         1 FAD501   0.0000
    17 C6A         11.5580    15.4910    19.0850 C.ar         1 FAD501   0.0000
    18 N6A         11.7300    16.5910    19.8500 N.pl3        1 FAD501   0.0000
    19 N1A         10.3270    14.9750    18.8780 N.ar         1 FAD501   0.0000
    20 C2A         10.1280    13.8810    18.1210 C.ar         1 FAD501   0.0000
    21 N3A         11.1340    13.2190    17.5200 N.ar         1 FAD501   0.0000
    22 C4A         12.4200    13.6280    17.6470 C.ar         1 FAD501   0.0000
    23 N1          25.3050     2.2250    14.7100 N.2          1 FAD501   0.0000
    24 C2          25.5860     0.9300    14.4410 C.2          1 FAD501   0.0000
    25 O2          25.2180     0.0720    15.2680 O.2          1 FAD501   0.0000
    26 N3          26.2280     0.5420    13.3220 N.pl3        1 FAD501   0.0000
    27 C4          26.6500     1.4220    12.4030 C.2          1 FAD501   0.0000
    28 O4          27.2440     1.0320    11.3780 O.2          1 FAD501   0.0000
    29 C4X         26.3870     2.8680    12.6200 C.2          1 FAD501   0.0000
    30 N5          26.7630     3.8300    11.7450 N.2          1 FAD501   0.0000
    31 C5X         26.4910     5.1340    11.9830 C.ar         1 FAD501   0.0000
    32 C6          26.8950     6.1010    11.0700 C.ar         1 FAD501   0.0000
    33 C7          26.6290     7.4480    11.3060 C.ar         1 FAD501   0.0000
    34 C7M         27.0600     8.4900    10.3080 C.3          1 FAD501   0.0000
    35 C8          25.9040     7.8560    12.5370 C.ar         1 FAD501   0.0000
    36 C8M         25.6080     9.3080    12.8070 C.3          1 FAD501   0.0000
    37 C9          25.5080     6.8970    13.4560 C.ar         1 FAD501   0.0000
    38 C9A         25.7720     5.5470    13.2240 C.ar         1 FAD501   0.0000
    39 N10         25.3790     4.5530    14.1470 N.pl3        1 FAD501   0.0000
    40 C10         25.6710     3.2130    13.8670 C.2          1 FAD501   0.0000
    41 C1'         24.6830     4.8660    15.3890 C.3          1 FAD501   0.0000
    42 C2'         23.1870     4.7060    15.2060 C.3          1 FAD501   0.0000
    43 O2'         22.7320     5.4800    14.0890 O.3          1 FAD501   0.0000
    44 C3'         22.5240     5.1550    16.4980 C.3          1 FAD501   0.0000
    45 O3'         23.2190     4.5220    17.5750 O.3          1 FAD501   0.0000
    46 C4'         21.0460     4.7980    16.5490 C.3          1 FAD501   0.0000
    47 O4'         20.3560     5.3890    15.4370 O.3          1 FAD501   0.0000
    48 C5'         20.4360     5.2890    17.8560 C.3          1 FAD501   0.0000
    49 O5'         19.0350     5.0530    17.8310 O.3          1 FAD501   0.0000
    50 P           18.0640     5.8090    18.8560 P.3          1 FAD501   0.0000
    51 O1P         16.7930     4.9990    18.9310 O.co2        1 FAD501   0.0000
    52 O2P         18.8370     6.1090    20.1110 O.co2        1 FAD501  -1.0000
    53 O3P         17.7370     7.2150    18.1540 O.3          1 FAD501   0.0000
    54 H5B1        16.7071     9.9622    17.1426 H            1 FAD501   0.0000
    55 H5B2        15.6775     8.9755    17.9383 H            1 FAD501   0.0000
    56 H4B         14.1241     9.2344    16.0846 H            1 FAD501   0.0000
    57 H3B         16.2014    10.6380    14.9358 H            1 FAD501   0.0000
    58 H5          13.5876    10.0790    14.0265 H            1 FAD501   0.0000
    59 H2B         15.4962    12.6763    15.4824 H            1 FAD501   0.0000
    60 H7          13.1704    12.4242    13.9890 H            1 FAD501   0.0000
    61 H1B         12.8249    11.7662    15.9421 H            1 FAD501   0.0000
    62 H8A         15.5384    13.8850    17.4409 H            1 FAD501   0.0000
    63 H6A1        10.9391    17.0380    20.2679 H            1 FAD501   0.0000
    64 H6A2        12.6482    16.9582    19.9984 H            1 FAD501   0.0000
    65 H2A          9.1938    13.5456    17.9997 H            1 FAD501   0.0000
    66 H13         26.3949    -0.4325    13.1723 H            1 FAD501   0.0000
    67 H14         27.3795     5.8282    10.2388 H            1 FAD501   0.0000
    68 H7M1        26.7906     9.3960    10.6346 H            1 FAD501   0.0000
    69 H7M2        28.0535     8.4567    10.1994 H            1 FAD501   0.0000
    70 H7M3        26.6221     8.3093     9.4273 H            1 FAD501   0.0000
    71 H8M1        25.1176     9.3925    13.6744 H            1 FAD501   0.0000
    72 H8M2        26.4659     9.8192    12.8580 H            1 FAD501   0.0000
    73 H8M3        25.0440     9.6762    12.0679 H            1 FAD501   0.0000
    74 H21         25.0305     7.1743    14.2897 H            1 FAD501   0.0000
    75 H1'1        24.8845     5.8096    15.6517 H            1 FAD501   0.0000
    76 H1'2        24.9959     4.2457    16.1082 H            1 FAD501   0.0000
    77 H2'         22.9763     3.7417    15.0458 H            1 FAD501   0.0000
    78 H25         21.7884     5.7709    14.2473 H            1 FAD501   0.0000
    79 H3'         22.6220     6.1463    16.5861 H            1 FAD501   0.0000
    80 H27         23.1800     5.1060    18.3858 H            1 FAD501   0.0000
    81 H4'         20.9502     3.8038    16.4993 H            1 FAD501   0.0000
    82 H29         19.6451     6.0055    15.7754 H            1 FAD501   0.0000
    83 H5'1        20.6091     6.2685    17.9595 H            1 FAD501   0.0000
    84 H5'2        20.8454     4.7953    18.6232 H            1 FAD501   0.0000
@<TRIPOS>BOND
     1    1    2      ar
     2    1    3      ar
     3    1    4       1
     4    1   53       1
     5    4    5       1
     6    5    6       1
     7    6    7       1
     8    6    8       1
     9    7   12       1
    10    8    9       1
    11    8   10       1
    12   10   11       1
    13   10   12       1
    14   12   13       1
    15   13   14       1
    16   13   22       1
    17   14   15       2
    18   15   16       1
    19   16   17      ar
    20   16   22      ar
    21   17   18       1
    22   17   19      ar
    23   19   20      ar
    24   20   21      ar
    25   21   22      ar
    26   23   24       1
    27   23   40       2
    28   24   25       2
    29   24   26       1
    30   26   27       1
    31   27   28       2
    32   27   29       1
    33   29   30       2
    34   29   40       1
    35   30   31       1
    36   31   32      ar
    37   31   38      ar
    38   32   33      ar
    39   33   34       1
    40   33   35      ar
    41   35   36       1
    42   35   37      ar
    43   37   38      ar
    44   38   39       1
    45   39   40       1
    46   39   41       1
    47   41   42       1
    48   42   43       1
    49   42   44       1
    50   44   45       1
    51   44   46       1
    52   46   47       1
    53   46   48       1
    54   48   49       1
    55   49   50       1
    56   50   51      ar
    57   50   52      ar
    58   50   53       1
    59   48   84       1
    60    5   54       1
    61    5   55       1
    62    6   56       1
    63    8   57       1
    64    9   58       1
    65   10   59       1
    66   11   60       1
    67   12   61       1
    68   14   62       1
    69   18   63       1
    70   18   64       1
    71   20   65       1
    72   26   66       1
    73   32   67       1
    74   34   68       1
    75   34   69       1
    76   34   70       1
    77   36   71       1
    78   36   72       1
    79   36   73       1
    80   37   74       1
    81   41   75       1
    82   41   76       1
    83   42   77       1
    84   43   78       1
    85   44   79       1
    86   45   80       1
    87   46   81       1
    88   47   82       1
    89   48   83       1
@<TRIPOS>SUBSTRUCTURE
     1 FAD501      1 GROUP             4 B     FAD     0 **** FAD B 501
