@<TRIPOS>MOLECULE
3l7g_M44_2_ligand
   27    26     1     0     0
SMALL
NO_CHARGES


@<TRIPOS>ATOM
     1 P           31.7250    72.0590    33.8920 P.3          1 M44518   0.0000
     2 C1          31.5770    73.5810    36.0580 C.3          1 M44518   0.0000
     3 N1          31.3600    73.5520    34.6100 N.3          1 M44518   0.0000
     4 O1          30.4600    71.4420    33.3690 O.co2        1 M44518   0.0000
     5 C2          30.2670    73.2690    36.7610 C.3          1 M44518   0.0000
     6 N2          32.8170    72.2220    32.6060 N.3          1 M44518   0.0000
     7 O2          32.3350    71.1450    34.9210 O.co2        1 M44518  -1.0000
     8 C3          32.0620    74.9790    36.4780 C.3          1 M44518   0.0000
     9 C4          34.1420    72.6430    33.0400 C.3          1 M44518   0.0000
    10 C5          34.4210    74.0850    32.6210 C.3          1 M44518   0.0000
    11 C6          35.1570    71.7010    32.4170 C.3          1 M44518   0.0000
    12 H1          32.2634    72.8982    36.3084 H            1 M44518   0.0000
    13 H2          31.9371    74.2528    34.1907 H            1 M44518   0.0000
    14 H3          30.4074    73.2870    37.7509 H            1 M44518   0.0000
    15 H4          29.5823    73.9529    36.5090 H            1 M44518   0.0000
    16 H5          29.9489    72.3617    36.4859 H            1 M44518   0.0000
    17 H6          32.8981    71.3398    32.1421 H            1 M44518   0.0000
    18 H7          32.2098    74.9974    37.4669 H            1 M44518   0.0000
    19 H8          32.9197    75.1891    36.0088 H            1 M44518   0.0000
    20 H9          31.3718    75.6593    36.2314 H            1 M44518   0.0000
    21 H10         34.1984    72.5740    34.0360 H            1 M44518   0.0000
    22 H11         35.3344    74.3509    32.9293 H            1 M44518   0.0000
    23 H12         34.3709    74.1583    31.6249 H            1 M44518   0.0000
    24 H13         33.7404    74.6899    33.0344 H            1 M44518   0.0000
    25 H14         36.0780    71.9689    32.7000 H            1 M44518   0.0000
    26 H15         34.9739    70.7658    32.7202 H            1 M44518   0.0000
    27 H16         35.0876    71.7479    31.4205 H            1 M44518   0.0000
@<TRIPOS>BOND
     1    1    3       1
     2    1    4      ar
     3    1    6       1
     4    1    7      ar
     5    2    3       1
     6    2    5       1
     7    2    8       1
     8    6    9       1
     9    9   10       1
    10    9   11       1
    11    2   12       1
    12    3   13       1
    13   11   27       1
    14    5   14       1
    15    5   15       1
    16    5   16       1
    17    6   17       1
    18    8   18       1
    19    8   19       1
    20    8   20       1
    21    9   21       1
    22   10   22       1
    23   10   23       1
    24   10   24       1
    25   11   25       1
    26   11   26       1
@<TRIPOS>SUBSTRUCTURE
     1 M44518      1 GROUP             4 B     M44     0 **** M44 B 518
