@<TRIPOS>MOLECULE
3ncg_BK1_1_ligand
   43    46     1     0     0
SMALL
NO_CHARGES


@<TRIPOS>ATOM
     1 N1          27.4900     6.2330     6.7040 N.ar         1 BK1561   0.0000
     2 C2          27.5290     5.5080     5.6050 C.ar         1 BK1561   0.0000
     3 N3          26.8960     5.8890     4.5020 N.ar         1 BK1561   0.0000
     4 C4          26.2050     7.0290     4.4620 C.ar         1 BK1561   0.0000
     5 C5          26.1310     7.8350     5.5930 C.ar         1 BK1561   0.0000
     6 C6          26.8110     7.3920     6.7410 C.ar         1 BK1561   0.0000
     7 CAA         25.3780     8.2410     1.1400 C.3          1 BK1561   0.0000
     8 CAB         23.8240     6.5960     2.1180 C.3          1 BK1561   0.0000
     9 NAC         26.8150     8.0450     7.8830 N.pl3        1 BK1561   0.0000
    10 CAD         24.6340    15.0870     7.3330 C.ar         1 BK1561   0.0000
    11 CAE         23.7120    14.1010     7.0390 C.ar         1 BK1561   0.0000
    12 CAF         28.1960    11.9340     6.4940 C.ar         1 BK1561   0.0000
    13 CAG         27.2540    10.9530     6.2000 C.ar         1 BK1561   0.0000
    14 CAH         25.9840    14.7720     7.2730 C.ar         1 BK1561   0.0000
    15 CAI         27.7850    13.2100     6.8610 C.ar         1 BK1561   0.0000
    16 CAJ         24.1390    12.8280     6.6720 C.ar         1 BK1561   0.0000
    17 CAL         24.8320    10.1590     5.9370 C.3          1 BK1561   0.0000
    18 NAO         25.0050     8.6770     3.9250 N.2          1 BK1561   0.0000
    19 CAQ         25.8900    11.2400     6.2590 C.ar         1 BK1561   0.0000
    20 CAR         25.3360     8.9140     5.1910 C.2          1 BK1561   0.0000
    21 CAS         26.4250    13.4970     6.9170 C.ar         1 BK1561   0.0000
    22 CAT         25.4960    12.5230     6.6090 C.ar         1 BK1561   0.0000
    23 CAW         25.2760     7.1110     2.1540 C.3          1 BK1561   0.0000
    24 NAX         25.5120     7.6260     3.5130 N.pl3        1 BK1561   0.0000
    25 H1          28.0465     4.6523     5.6014 H            1 BK1561   0.0000
    26 HAA1        26.3107     8.6016     1.1354 H            1 BK1561   0.0000
    27 HAA2        25.1503     7.8940     0.2302 H            1 BK1561   0.0000
    28 HAA3        24.7400     8.9700     1.3880 H            1 BK1561   0.0000
    29 HAB1        23.7188     5.8492     2.7747 H            1 BK1561   0.0000
    30 HAB2        23.2003     7.3403     2.3569 H            1 BK1561   0.0000
    31 HAB3        23.6107     6.2643     1.1991 H            1 BK1561   0.0000
    32 HAC1        26.3250     8.9129     7.9644 H            1 BK1561   0.0000
    33 HAC2        27.3080     7.6734     8.6697 H            1 BK1561   0.0000
    34 HAD         24.3349    16.0077     7.5836 H            1 BK1561   0.0000
    35 HAE         22.7339    14.3027     7.0901 H            1 BK1561   0.0000
    36 HAF         29.1715    11.7203     6.4411 H            1 BK1561   0.0000
    37 HAG         27.5571    10.0350     5.9444 H            1 BK1561   0.0000
    38 HAH         26.6586    15.4773     7.4906 H            1 BK1561   0.0000
    39 HAI         28.4597    13.9141     7.0824 H            1 BK1561   0.0000
    40 HAJ         23.4634    12.1246     6.4511 H            1 BK1561   0.0000
    41 HAL1        24.1228    10.5847     5.3750 H            1 BK1561   0.0000
    42 HAL2        24.4337     9.8551     6.8025 H            1 BK1561   0.0000
    43 HAW         25.9192     6.3773     1.9349 H            1 BK1561   0.0000
@<TRIPOS>BOND
     1    1    2      ar
     2    1    6      ar
     3    2    3      ar
     4    3    4      ar
     5    4    5      ar
     6    4   24       1
     7    5    6      ar
     8    5   20       1
     9    6    9       1
    10    7   23       1
    11    8   23       1
    12   10   11      ar
    13   10   14      ar
    14   11   16      ar
    15   12   13      ar
    16   12   15      ar
    17   13   19      ar
    18   14   21      ar
    19   15   21      ar
    20   16   22      ar
    21   17   19       1
    22   17   20       1
    23   18   20       2
    24   18   24       1
    25   19   22      ar
    26   21   22      ar
    27   23   24       1
    28    2   25       1
    29    7   26       1
    30    7   27       1
    31    7   28       1
    32    8   29       1
    33    8   30       1
    34    8   31       1
    35    9   32       1
    36    9   33       1
    37   10   34       1
    38   11   35       1
    39   12   36       1
    40   13   37       1
    41   14   38       1
    42   15   39       1
    43   16   40       1
    44   17   41       1
    45   17   42       1
    46   23   43       1
@<TRIPOS>SUBSTRUCTURE
     1 BK1561      1 GROUP             4 A     BK1     0 **** BK1 A 561
