@<TRIPOS>MOLECULE
1fvp_FMA_1_ligand
   91    93     1     0     0
SMALL
NO_CHARGES


@<TRIPOS>ATOM
     1 N1          -7.5160    34.6610   102.0730 N.2          1 FMA232   0.0000
     2 C2          -7.8910    33.7720   103.0040 C.2          1 FMA232   0.0000
     3 O2          -8.6900    32.9090   102.9720 O.2          1 FMA232   0.0000
     4 N3          -7.2550    33.8110   104.3170 N.pl3        1 FMA232   0.0000
     5 C4          -6.3120    34.7290   104.5710 C.2          1 FMA232   0.0000
     6 O4          -5.7830    34.7870   105.6470 O.2          1 FMA232   0.0000
     7 C4A         -5.9340    35.6590   103.5650 C.2          1 FMA232   0.0000
     8 N5          -5.0210    36.5630   103.7820 N.2          1 FMA232   0.0000
     9 C5A         -4.5860    37.4640   102.8980 C.ar         1 FMA232   0.0000
    10 C6          -3.6290    38.4180   103.2110 C.ar         1 FMA232   0.0000
    11 C7          -3.2130    39.2860   102.2380 C.ar         1 FMA232   0.0000
    12 C7M         -2.1290    40.3830   102.4890 C.3          1 FMA232   0.0000
    13 C8          -3.7800    39.2470   100.9120 C.ar         1 FMA232   0.0000
    14 C8M         -3.3650    40.1940    99.8360 C.3          1 FMA232   0.0000
    15 C9          -4.7460    38.3080   100.6300 C.ar         1 FMA232   0.0000
    16 C9A         -5.1960    37.4220   101.5710 C.ar         1 FMA232   0.0000
    17 N10         -6.1670    36.4340   101.3500 N.pl3        1 FMA232   0.0000
    18 C10         -6.6040    35.5460   102.2440 C.2          1 FMA232   0.0000
    19 C1B         -6.8650    36.4670   100.0470 C.3          1 FMA232   0.0000
    20 C2B         -7.0430    35.5160    98.8720 C.3          1 FMA232   0.0000
    21 O2B         -6.8800    36.3720    97.7430 O.3          1 FMA232   0.0000
    22 C3B         -8.4820    35.0090    98.9060 C.3          1 FMA232   0.0000
    23 O3'         -8.6310    34.1030    99.9320 O.3          1 FMA232   0.0000
    24 C4B         -8.9070    34.3760    97.5800 C.3          1 FMA232   0.0000
    25 O4'         -8.7250    35.3990    96.5390 O.3          1 FMA232   0.0000
    26 C5B        -10.3680    33.8930    97.6580 C.3          1 FMA232   0.0000
    27 O5'        -11.2210    35.1630    97.4530 O.3          1 FMA232   0.0000
    28 P          -11.8270    35.6770    96.0850 P.3          1 FMA232   0.0000
    29 O1P        -10.8340    36.8550    95.7900 O.co2        1 FMA232   0.0000
    30 O2P        -11.6480    34.5840    95.1500 O.co2        1 FMA232  -1.0000
    31 O3P        -13.1640    35.9610    96.2640 O.co2        1 FMA232  -1.0000
    32 C1'         -4.6940    39.4760   106.3250 C.2          1 FMA232   0.0000
    33 O1'         -5.9490    39.7090   106.5640 O.co2        1 FMA232   0.0000
    34 O2'         -3.8990    39.8300   107.1990 O.co2        1 FMA232  -1.0000
    35 C2'         -4.3940    38.3210   105.4270 C.3          1 FMA232   0.0000
    36 C3'         -3.0930    38.4260   104.5980 C.3          1 FMA232   0.0000
    37 C4'         -2.1610    37.3170   104.9300 C.3          1 FMA232   0.0000
    38 C5'         -0.7100    37.4730   104.5040 C.3          1 FMA232   0.0000
    39 C6'         -0.0530    36.1190   104.5820 C.3          1 FMA232   0.0000
    40 C7'          1.4610    36.2300   104.4680 C.3          1 FMA232   0.0000
    41 C8'          2.1330    34.9170   104.3410 C.3          1 FMA232   0.0000
    42 C9'          3.6610    34.9100   104.2930 C.3          1 FMA232   0.0000
    43 C11          4.1390    35.6700   103.0700 C.3          1 FMA232   0.0000
    44 C12          4.4580    37.1180   103.2800 C.3          1 FMA232   0.0000
    45 C13          4.4180    38.0160   102.0880 C.3          1 FMA232   0.0000
    46 C14          5.6880    37.9890   101.2650 C.3          1 FMA232   0.0000
    47 C15          6.1040    39.3510   100.7730 C.3          1 FMA232   0.0000
    48 H1          -7.5215    33.1558   105.0239 H            1 FMA232   0.0000
    49 H7M1        -1.9785    40.9017   101.6474 H            1 FMA232   0.0000
    50 H7M2        -2.4412    41.0013   103.2103 H            1 FMA232   0.0000
    51 H7M3        -1.2735    39.9481   102.7700 H            1 FMA232   0.0000
    52 H8M1        -3.8779    39.9952    99.0009 H            1 FMA232   0.0000
    53 H8M2        -3.5526    41.1321   100.1270 H            1 FMA232   0.0000
    54 H8M3        -2.3864    40.0893    99.6590 H            1 FMA232   0.0000
    55 H8          -5.1314    38.2720    99.7080 H            1 FMA232   0.0000
    56 H1B1        -6.4701    37.2759    99.6115 H            1 FMA232   0.0000
    57 H1B2        -7.8095    36.6594   100.3134 H            1 FMA232   0.0000
    58 H2B         -6.3770    34.7701    98.8826 H            1 FMA232   0.0000
    59 H12         -7.7131    36.3567    97.1901 H            1 FMA232   0.0000
    60 H3B         -9.0830    35.7874    99.0872 H            1 FMA232   0.0000
    61 H3'         -7.9975    34.3300   100.6717 H            1 FMA232   0.0000
    62 H4B         -8.3129    33.5963    97.3824 H            1 FMA232   0.0000
    63 H4'         -9.6031    35.5865    96.0987 H            1 FMA232   0.0000
    64 H5B1       -10.5557    33.4841    98.5511 H            1 FMA232   0.0000
    65 H5B2       -10.5557    33.2239    96.9390 H            1 FMA232   0.0000
    66 H2'1        -5.1570    38.2244   104.7878 H            1 FMA232   0.0000
    67 H2'2        -4.3292    37.5006   105.9952 H            1 FMA232   0.0000
    68 H21         -2.6489    39.3032   104.7807 H            1 FMA232   0.0000
    69 H4'1        -2.5139    36.4882   104.4958 H            1 FMA232   0.0000
    70 H4'2        -2.1716    37.2032   105.9235 H            1 FMA232   0.0000
    71 H5'1        -0.2437    38.1121   105.1156 H            1 FMA232   0.0000
    72 H5'2        -0.6669    37.8175   103.5662 H            1 FMA232   0.0000
    73 H6'1        -0.3947    35.5479   103.8356 H            1 FMA232   0.0000
    74 H6'2        -0.2833    35.6954   105.4581 H            1 FMA232   0.0000
    75 H7'1         1.8089    36.6874   105.2864 H            1 FMA232   0.0000
    76 H7'2         1.6798    36.7786   103.6610 H            1 FMA232   0.0000
    77 H8'1         1.8045    34.4924   103.4973 H            1 FMA232   0.0000
    78 H8'2         1.8550    34.3609   105.1242 H            1 FMA232   0.0000
    79 H9'1         3.9876    33.9660   104.2461 H            1 FMA232   0.0000
    80 H9'2         4.0212    35.3468   105.1173 H            1 FMA232   0.0000
    81 H34          3.4227    35.6123   102.3746 H            1 FMA232   0.0000
    82 H35          4.9665    35.2200   102.7343 H            1 FMA232   0.0000
    83 H36          5.3810    37.1685   103.6614 H            1 FMA232   0.0000
    84 H37          3.8024    37.4751   103.9454 H            1 FMA232   0.0000
    85 H38          4.2655    38.9527   102.4031 H            1 FMA232   0.0000
    86 H39          3.6571    37.7326   101.5043 H            1 FMA232   0.0000
    87 H40          5.5414    37.3960   100.4733 H            1 FMA232   0.0000
    88 H41          6.4246    37.6159   101.8291 H            1 FMA232   0.0000
    89 H42          6.9451    39.2697   100.2382 H            1 FMA232   0.0000
    90 H43          5.3799    39.7337   100.1992 H            1 FMA232   0.0000
    91 H44          6.2631    39.9536   101.5550 H            1 FMA232   0.0000
@<TRIPOS>BOND
     1    1    2       1
     2    1   18       2
     3    2    3       2
     4    2    4       1
     5    4    5       1
     6    5    6       2
     7    5    7       1
     8    7    8       2
     9    7   18       1
    10    8    9       1
    11    9   10      ar
    12    9   16      ar
    13   10   11      ar
    14   10   36       1
    15   11   12       1
    16   11   13      ar
    17   13   14       1
    18   13   15      ar
    19   15   16      ar
    20   16   17       1
    21   17   18       1
    22   17   19       1
    23   19   20       1
    24   20   21       1
    25   20   22       1
    26   22   23       1
    27   22   24       1
    28   24   25       1
    29   24   26       1
    30   26   27       1
    31   27   28       1
    32   28   29      ar
    33   28   30      ar
    34   28   31      ar
    35   32   33      ar
    36   32   34      ar
    37   32   35       1
    38   35   36       1
    39   36   37       1
    40   37   38       1
    41   38   39       1
    42   39   40       1
    43   40   41       1
    44   41   42       1
    45   42   43       1
    46   43   44       1
    47   44   45       1
    48   45   46       1
    49   46   47       1
    50    4   48       1
    51   12   49       1
    52   12   50       1
    53   12   51       1
    54   14   52       1
    55   14   53       1
    56   14   54       1
    57   15   55       1
    58   19   56       1
    59   19   57       1
    60   20   58       1
    61   21   59       1
    62   22   60       1
    63   23   61       1
    64   24   62       1
    65   25   63       1
    66   26   64       1
    67   26   65       1
    68   47   91       1
    69   47   90       1
    70   47   89       1
    71   35   66       1
    72   35   67       1
    73   36   68       1
    74   37   69       1
    75   37   70       1
    76   38   71       1
    77   38   72       1
    78   39   73       1
    79   39   74       1
    80   40   75       1
    81   40   76       1
    82   41   77       1
    83   41   78       1
    84   42   79       1
    85   42   80       1
    86   43   81       1
    87   43   82       1
    88   44   83       1
    89   44   84       1
    90   45   85       1
    91   45   86       1
    92   46   87       1
    93   46   88       1
@<TRIPOS>SUBSTRUCTURE
     1 FMA232      1 GROUP             4 A     FMA     0 **** FMA A 232
