@<TRIPOS>MOLECULE
2yqz_SAM_1_ligand
   50    52     1     0     0
SMALL
NO_CHARGES


@<TRIPOS>ATOM
     1 N           20.0490    -3.5350    64.9510 N.4          1 SAM301   1.0000
     2 CA          19.9190    -2.1000    64.9180 C.3          1 SAM301   0.0000
     3 C           18.9580    -1.5370    63.7930 C.2          1 SAM301   0.0000
     4 O           18.6960    -0.3440    63.7670 O.co2        1 SAM301   0.0000
     5 OXT         18.5430    -2.3850    63.0080 O.co2        1 SAM301  -1.0000
     6 CB          21.3260    -1.5060    64.7740 C.3          1 SAM301   0.0000
     7 CG          21.9470    -1.6060    63.3700 C.3          1 SAM301   0.0000
     8 SD          23.5440    -0.9260    63.1200 S.3          1 SAM301   1.0000
     9 CE          23.9960    -1.1490    61.4280 C.3          1 SAM301   0.0000
    10 C5'         24.8610    -1.9520    63.7150 C.3          1 SAM301   0.0000
    11 C4'         25.1120    -2.1250    65.2050 C.3          1 SAM301   0.0000
    12 O4'         25.9070    -3.2160    65.6430 O.3          1 SAM301   0.0000
    13 C3'         25.7050    -0.9330    65.7760 C.3          1 SAM301   0.0000
    14 O3'         24.9570    -0.5050    66.8180 O.3          1 SAM301   0.0000
    15 C2'         27.1340    -1.3790    66.1040 C.3          1 SAM301   0.0000
    16 O2'         27.6570    -0.6850    67.0860 O.3          1 SAM301   0.0000
    17 C1'         26.8950    -2.8200    66.4510 C.3          1 SAM301   0.0000
    18 N9          27.9590    -3.7320    66.3420 N.pl3        1 SAM301   0.0000
    19 C8          28.8150    -3.8570    65.2730 C.2          1 SAM301   0.0000
    20 N7          29.6950    -4.8100    65.5140 N.2          1 SAM301   0.0000
    21 C5          29.4010    -5.3100    66.7560 C.ar         1 SAM301   0.0000
    22 C6          29.9230    -6.3290    67.6250 C.ar         1 SAM301   0.0000
    23 N6          30.8710    -6.9840    67.2880 N.pl3        1 SAM301   0.0000
    24 N1          29.3550    -6.5630    68.8270 N.ar         1 SAM301   0.0000
    25 C2          28.3190    -5.8470    69.2050 C.ar         1 SAM301   0.0000
    26 N3          27.8390    -4.9240    68.4370 N.ar         1 SAM301   0.0000
    27 C4          28.3050    -4.6140    67.2520 C.ar         1 SAM301   0.0000
    28 H1          20.6714    -3.7964    65.6887 H            1 SAM301   0.0000
    29 H2          19.1520    -3.9474    65.1099 H            1 SAM301   0.0000
    30 HA          19.5551    -1.8077    65.8024 H            1 SAM301   0.0000
    31 HB1         21.9291    -1.9843    65.4123 H            1 SAM301   0.0000
    32 HB2         21.2786    -0.5383    65.0217 H            1 SAM301   0.0000
    33 HG1         21.3256    -1.1439    62.7373 H            1 SAM301   0.0000
    34 HG2         21.9984    -2.5771    63.1370 H            1 SAM301   0.0000
    35 HE1         24.9061    -0.7648    61.2727 H            1 SAM301   0.0000
    36 HE2         24.0049    -2.1252    61.2112 H            1 SAM301   0.0000
    37 HE3         23.3331    -0.6833    60.8417 H            1 SAM301   0.0000
    38 H5'1        25.7054    -1.5836    63.3260 H            1 SAM301   0.0000
    39 H5'2        24.6960    -2.8671    63.3471 H            1 SAM301   0.0000
    40 H4'         24.2159    -2.2331    65.6354 H            1 SAM301   0.0000
    41 H3'         25.7369    -0.2165    65.0791 H            1 SAM301   0.0000
    42 H15         24.9158    -1.2208    67.5150 H            1 SAM301   0.0000
    43 H2'         27.7109    -1.3121    65.2899 H            1 SAM301   0.0000
    44 H17         27.0998    -0.7991    67.9085 H            1 SAM301   0.0000
    45 H1'         26.5553    -2.8565    67.3908 H            1 SAM301   0.0000
    46 H19         28.7763    -3.3079    64.4381 H            1 SAM301   0.0000
    47 H20         31.2310    -7.6920    67.8956 H            1 SAM301   0.0000
    48 H21         31.3006    -6.8216    66.3997 H            1 SAM301   0.0000
    49 H22         27.8979    -6.0180    70.0957 H            1 SAM301   0.0000
    50 H23         20.4138    -3.8568    64.0773 H            1 SAM301   0.0000
@<TRIPOS>BOND
     1    1    2       1
     2    2    3       1
     3    2    6       1
     4    3    4      ar
     5    3    5      ar
     6    6    7       1
     7    7    8       1
     8    8    9       1
     9    8   10       1
    10   10   11       1
    11   11   12       1
    12   11   13       1
    13   12   17       1
    14   13   14       1
    15   13   15       1
    16   15   16       1
    17   15   17       1
    18   17   18       1
    19   18   19       1
    20   18   27       1
    21   19   20       2
    22   20   21       1
    23   21   22      ar
    24   21   27      ar
    25   22   23       1
    26   22   24      ar
    27   24   25      ar
    28   25   26      ar
    29   26   27      ar
    30    1   28       1
    31    1   29       1
    32    2   30       1
    33    1   50       1
    34    6   31       1
    35    6   32       1
    36    7   33       1
    37    7   34       1
    38    9   35       1
    39    9   36       1
    40    9   37       1
    41   10   38       1
    42   10   39       1
    43   11   40       1
    44   13   41       1
    45   14   42       1
    46   15   43       1
    47   16   44       1
    48   17   45       1
    49   19   46       1
    50   23   47       1
    51   23   48       1
    52   25   49       1
@<TRIPOS>SUBSTRUCTURE
     1 SAM301      1 GROUP             4 A     SAM     0 **** SAM A 301
