@<TRIPOS>MOLECULE
4wlj_IK2_1_ligand
   34    34     1     0     0
SMALL
NO_CHARGES


@<TRIPOS>ATOM
     1 N1          29.0410     6.1430     9.7650 N.ar         1 IK2501   1.0000
     2 C2          29.2880     6.2330     8.4350 C.ar         1 IK2501   0.0000
     3 C2A         30.2180     7.3720     8.0420 C.3          1 IK2501   0.0000
     4 C3          28.7050     5.3630     7.5450 C.ar         1 IK2501   0.0000
     5 O3          29.0180     5.5410     6.1800 O.3          1 IK2501   0.0000
     6 C4          27.8580     4.3450     7.9620 C.ar         1 IK2501   0.0000
     7 C4A         27.2230     3.4240     6.9590 C.3          1 IK2501   0.0000
     8 N4A         27.1800     4.0400     5.6060 N.3          1 IK2501   0.0000
     9 OX          26.4100     3.3300     4.6340 O.3          1 IK2501   0.0000
    10 C1'         25.3790     4.1580     4.0860 C.3          1 IK2501   0.0000
    11 C2'         25.8390     4.9340     2.8950 C.2          1 IK2501   0.0000
    12 O1'         25.9740     4.2890     1.7830 O.co2        1 IK2501   0.0000
    13 O2'         26.0430     6.1750     2.9930 O.co2        1 IK2501  -1.0000
    14 C5          27.6190     4.2450     9.3100 C.ar         1 IK2501   0.0000
    15 C6          28.2040     5.1680    10.1840 C.ar         1 IK2501   0.0000
    16 C5A         26.7060     3.2090     9.9380 C.3          1 IK2501   0.0000
    17 O4P         27.3910     2.0130    10.2050 O.3          1 IK2501   0.0000
    18 P           26.6000     0.6900    10.6250 P.3          1 IK2501   0.0000
    19 O1P         26.1910    -0.1010     9.4220 O.co2        1 IK2501   0.0000
    20 O2P         25.4180     1.1180    11.4570 O.co2        1 IK2501  -1.0000
    21 O3P         27.6380    -0.0950    11.4210 O.co2        1 IK2501  -1.0000
    22 H2A1        30.3482     7.3691     7.0505 H            1 IK2501   0.0000
    23 H2A2        29.8152     8.2432     8.3227 H            1 IK2501   0.0000
    24 H2A3        31.1016     7.2521     8.4946 H            1 IK2501   0.0000
    25 H4          28.6196     4.9340     5.4924 H            1 IK2501   0.0000
    26 H4A1        26.2894     3.2179     7.2522 H            1 IK2501   0.0000
    27 H4A2        27.7529     2.5772     6.9140 H            1 IK2501   0.0000
    28 H4A         26.7923     4.9573     5.6967 H            1 IK2501   0.0000
    29 H1'1        25.0762     4.8007     4.7898 H            1 IK2501   0.0000
    30 H1'2        24.6123     3.5768     3.8132 H            1 IK2501   0.0000
    31 H10         27.9940     5.1035    11.1596 H            1 IK2501   0.0000
    32 H5A1        25.9513     3.0179     9.3103 H            1 IK2501   0.0000
    33 H5A2        26.3424     3.5735    10.7953 H            1 IK2501   0.0000
    34 H13         29.4635     6.7761    10.4136 H            1 IK2501   0.0000
@<TRIPOS>BOND
     1    1    2      ar
     2    1   15      ar
     3    2    3       1
     4    2    4      ar
     5    4    5       1
     6    4    6      ar
     7    6    7       1
     8    6   14      ar
     9    7    8       1
    10    8    9       1
    11    9   10       1
    12   10   11       1
    13   11   12      ar
    14   11   13      ar
    15   14   15      ar
    16   14   16       1
    17   16   17       1
    18   17   18       1
    19   18   19      ar
    20   18   20      ar
    21   18   21      ar
    22    3   22       1
    23    3   23       1
    24    3   24       1
    25    5   25       1
    26    7   26       1
    27    7   27       1
    28    8   28       1
    29   10   29       1
    30   10   30       1
    31   16   33       1
    32   15   31       1
    33   16   32       1
    34    1   34       1
@<TRIPOS>SUBSTRUCTURE
     1 IK2501      1 GROUP             4 A     IK2     0 **** IK2 A 501
