@<TRIPOS>MOLECULE
3u3o_3QV_2_ligand
   19    20     1     0     0
SMALL
NO_CHARGES


@<TRIPOS>ATOM
     1 C1          23.4890    21.0060    12.2890 C.ar         1 3QV297   0.0000
     2 N1          25.4030    19.2300    19.2420 N.1          1 3QV297   0.0000
     3 O1          23.2950    21.4690    11.0240 O.3          1 3QV297   0.0000
     4 C2          22.6640    20.0290    12.8110 C.ar         1 3QV297   0.0000
     5 O2          26.8600    21.5610    17.1110 O.2          1 3QV297   0.0000
     6 C3          22.8440    19.5460    14.1010 C.ar         1 3QV297   0.0000
     7 O3          25.7620    21.5850    15.1300 O.2          1 3QV297   0.0000
     8 C4          23.8540    20.0260    14.9110 C.ar         1 3QV297   0.0000
     9 C5          24.0170    19.5310    16.1950 C.2          1 3QV297   0.0000
    10 C6          25.0470    20.0490    16.9650 C.2          1 3QV297   0.0000
    11 C7          25.2300    19.6150    18.1620 C.1          1 3QV297   0.0000
    12 C8          25.9350    21.1040    16.4030 C.2          1 3QV297   0.0000
    13 C9          24.7510    21.0830    14.3620 C.ar         1 3QV297   0.0000
    14 C10         24.5300    21.5350    13.0610 C.ar         1 3QV297   0.0000
    15 H1          23.8964    22.1765    10.6528 H            1 3QV297   0.0000
    16 H2          21.9225    19.6621    12.2493 H            1 3QV297   0.0000
    17 H3          22.2306    18.8373    14.4496 H            1 3QV297   0.0000
    18 H4          23.4105    18.8221    16.5550 H            1 3QV297   0.0000
    19 H5          25.1210    22.2439    12.6760 H            1 3QV297   0.0000
@<TRIPOS>BOND
     1    1    3       1
     2    1    4      ar
     3    1   14      ar
     4    2   11       3
     5    4    6      ar
     6    5   12       2
     7    6    8      ar
     8    7   12       1
     9    7   13       1
    10    8    9       1
    11    8   13      ar
    12    9   10       2
    13   10   11       1
    14   10   12       1
    15   13   14      ar
    16    3   15       1
    17    4   16       1
    18    6   17       1
    19    9   18       1
    20   14   19       1
@<TRIPOS>SUBSTRUCTURE
     1 3QV297      1 GROUP             4 A     3QV     0 **** 3QV A 297
