@<TRIPOS>MOLECULE
1np7_FAD_1_ligand
   84    89     1     0     0
SMALL
NO_CHARGES


@<TRIPOS>ATOM
     1 PA          17.4890    -7.2940     0.8840 P.3          1 FAD500   0.0000
     2 O1A         17.8450    -8.5490     0.2020 O.co2        1 FAD500   0.0000
     3 O2A         16.2460    -7.2830     1.5440 O.co2        1 FAD500  -1.0000
     4 O5B         17.4340    -5.9730     0.0630 O.3          1 FAD500   0.0000
     5 C5B         18.3830    -5.8880    -1.0500 C.3          1 FAD500   0.0000
     6 C4B         19.1930    -4.5870    -1.0670 C.3          1 FAD500   0.0000
     7 O4B         18.3000    -3.4940    -1.0310 O.3          1 FAD500   0.0000
     8 C3B         20.0420    -4.4170     0.2000 C.3          1 FAD500   0.0000
     9 O3B         21.2360    -5.1350     0.0640 O.3          1 FAD500   0.0000
    10 C2B         20.2400    -3.0080     0.3460 C.3          1 FAD500   0.0000
    11 O2B         21.3530    -2.4870    -0.4430 O.3          1 FAD500   0.0000
    12 C1B         18.8740    -2.5030    -0.1770 C.3          1 FAD500   0.0000
    13 N9A         17.8830    -2.2210     0.9190 N.pl3        1 FAD500   0.0000
    14 C8A         16.9240    -3.0470     1.4830 C.2          1 FAD500   0.0000
    15 N7A         16.2440    -2.4260     2.4130 N.2          1 FAD500   0.0000
    16 C5A         16.7730    -1.1540     2.4600 C.ar         1 FAD500   0.0000
    17 C6A         16.4980    -0.0160     3.2230 C.ar         1 FAD500   0.0000
    18 N6A         15.5290    -0.0640     4.1410 N.pl3        1 FAD500   0.0000
    19 N1A         17.2300     1.1730     3.0410 N.ar         1 FAD500   0.0000
    20 C2A         18.2000     1.1760     2.1040 C.ar         1 FAD500   0.0000
    21 N3A         18.5210     0.1300     1.3330 N.ar         1 FAD500   0.0000
    22 C4A         17.7770    -1.0010     1.5550 C.ar         1 FAD500   0.0000
    23 N1          21.4300    -0.8160     4.7580 N.2          1 FAD500   0.0000
    24 C2          22.7280    -0.7400     4.2450 C.2          1 FAD500   0.0000
    25 O2          22.9830    -1.1470     3.1150 O.2          1 FAD500   0.0000
    26 N3          23.6750    -0.1620     5.1510 N.pl3        1 FAD500   0.0000
    27 C4          23.4020     0.3080     6.4410 C.2          1 FAD500   0.0000
    28 O4          24.3910     0.7540     6.9920 O.2          1 FAD500   0.0000
    29 C4X         21.9750     0.1840     6.9000 C.2          1 FAD500   0.0000
    30 N5          21.6470     0.6530     8.2010 N.2          1 FAD500   0.0000
    31 C5X         20.2880     0.5480     8.6400 C.ar         1 FAD500   0.0000
    32 C6          19.9480     1.0230     9.9130 C.ar         1 FAD500   0.0000
    33 C7          18.6010     0.9440    10.3860 C.ar         1 FAD500   0.0000
    34 C7M         18.3180     1.5220    11.8450 C.3          1 FAD500   0.0000
    35 C8          17.5570     0.3560     9.5320 C.ar         1 FAD500   0.0000
    36 C8M         16.0800     0.2100     9.9010 C.3          1 FAD500   0.0000
    37 C9          17.8890    -0.1210     8.2640 C.ar         1 FAD500   0.0000
    38 C9A         19.2390    -0.0410     7.7810 C.ar         1 FAD500   0.0000
    39 N10         19.5770    -0.5400     6.4370 N.pl3        1 FAD500   0.0000
    40 C10         20.9510    -0.3940     6.0400 C.2          1 FAD500   0.0000
    41 C1'         18.6890    -1.2410     5.6040 C.3          1 FAD500   0.0000
    42 C2'         19.0600    -2.6270     6.0540 C.3          1 FAD500   0.0000
    43 O2'         17.9470    -3.2590     6.4380 O.3          1 FAD500   0.0000
    44 C3'         19.9100    -3.5380     5.1460 C.3          1 FAD500   0.0000
    45 O3'         19.6530    -3.1680     3.8690 O.3          1 FAD500   0.0000
    46 C4'         19.9290    -5.0080     5.2490 C.3          1 FAD500   0.0000
    47 O4'         18.7930    -5.4990     5.9080 O.3          1 FAD500   0.0000
    48 C5'         20.1270    -5.6760     3.9960 C.3          1 FAD500   0.0000
    49 O5'         20.1450    -7.0610     4.0930 O.3          1 FAD500   0.0000
    50 P           19.8650    -7.7480     2.6010 P.3          1 FAD500   0.0000
    51 O1P         21.0200    -7.3300     1.7080 O.co2        1 FAD500   0.0000
    52 O2P         19.7590    -9.1760     2.8440 O.co2        1 FAD500  -1.0000
    53 O3P         18.5670    -6.9760     2.0610 O.3          1 FAD500   0.0000
    54 H5B1        17.8719    -5.9535    -1.9070 H            1 FAD500   0.0000
    55 H5B2        19.0197    -6.6561    -0.9820 H            1 FAD500   0.0000
    56 H4B         19.7687    -4.5429    -1.8835 H            1 FAD500   0.0000
    57 H3B         19.5343    -4.7640     0.9885 H            1 FAD500   0.0000
    58 H5          21.2966    -5.8214     0.7887 H            1 FAD500   0.0000
    59 H2B         20.3542    -2.7697     1.3105 H            1 FAD500   0.0000
    60 H7          22.1925    -2.5252     0.0990 H            1 FAD500   0.0000
    61 H1B         19.0192    -1.6661    -0.7048 H            1 FAD500   0.0000
    62 H8A         16.7708    -3.9977     1.2134 H            1 FAD500   0.0000
    63 H6A1        15.3229     0.7438     4.6932 H            1 FAD500   0.0000
    64 H6A2        15.0096    -0.9078     4.2761 H            1 FAD500   0.0000
    65 H2A         18.7175     2.0220     1.9758 H            1 FAD500   0.0000
    66 H13         24.6198    -0.0872     4.8320 H            1 FAD500   0.0000
    67 H14         20.6549     1.4216    10.4973 H            1 FAD500   0.0000
    68 H7M1        17.3486     1.4124    12.0647 H            1 FAD500   0.0000
    69 H7M2        18.8698     1.0237    12.5138 H            1 FAD500   0.0000
    70 H7M3        18.5581     2.4924    11.8715 H            1 FAD500   0.0000
    71 H8M1        15.5884    -0.2210     9.1443 H            1 FAD500   0.0000
    72 H8M2        15.9955    -0.3578    10.7198 H            1 FAD500   0.0000
    73 H8M3        15.6903     1.1134    10.0801 H            1 FAD500   0.0000
    74 H21         17.1795    -0.5229     7.6852 H            1 FAD500   0.0000
    75 H1'1        18.8779    -1.0916     4.6334 H            1 FAD500   0.0000
    76 H1'2        17.7324    -1.0210     5.7951 H            1 FAD500   0.0000
    77 H2'         19.5983    -2.5026     6.8875 H            1 FAD500   0.0000
    78 H25         18.0473    -4.2403     6.2736 H            1 FAD500   0.0000
    79 H3'         20.8552    -3.2560     5.3106 H            1 FAD500   0.0000
    80 H27         20.2971    -2.4547     3.5926 H            1 FAD500   0.0000
    81 H4'         20.7137    -5.2424     5.8229 H            1 FAD500   0.0000
    82 H29         19.0732    -6.0010     6.7262 H            1 FAD500   0.0000
    83 H5'1        21.0010    -5.3758     3.6139 H            1 FAD500   0.0000
    84 H5'2        19.3855    -5.4133     3.3786 H            1 FAD500   0.0000
@<TRIPOS>BOND
     1    1    2      ar
     2    1    3      ar
     3    1    4       1
     4    1   53       1
     5    4    5       1
     6    5    6       1
     7    6    7       1
     8    6    8       1
     9    7   12       1
    10    8    9       1
    11    8   10       1
    12   10   11       1
    13   10   12       1
    14   12   13       1
    15   13   14       1
    16   13   22       1
    17   14   15       2
    18   15   16       1
    19   16   17      ar
    20   16   22      ar
    21   17   18       1
    22   17   19      ar
    23   19   20      ar
    24   20   21      ar
    25   21   22      ar
    26   23   24       1
    27   23   40       2
    28   24   25       2
    29   24   26       1
    30   26   27       1
    31   27   28       2
    32   27   29       1
    33   29   30       2
    34   29   40       1
    35   30   31       1
    36   31   32      ar
    37   31   38      ar
    38   32   33      ar
    39   33   34       1
    40   33   35      ar
    41   35   36       1
    42   35   37      ar
    43   37   38      ar
    44   38   39       1
    45   39   40       1
    46   39   41       1
    47   41   42       1
    48   42   43       1
    49   42   44       1
    50   44   45       1
    51   44   46       1
    52   46   47       1
    53   46   48       1
    54   48   49       1
    55   49   50       1
    56   50   51      ar
    57   50   52      ar
    58   50   53       1
    59   48   84       1
    60    5   54       1
    61    5   55       1
    62    6   56       1
    63    8   57       1
    64    9   58       1
    65   10   59       1
    66   11   60       1
    67   12   61       1
    68   14   62       1
    69   18   63       1
    70   18   64       1
    71   20   65       1
    72   26   66       1
    73   32   67       1
    74   34   68       1
    75   34   69       1
    76   34   70       1
    77   36   71       1
    78   36   72       1
    79   36   73       1
    80   37   74       1
    81   41   75       1
    82   41   76       1
    83   42   77       1
    84   43   78       1
    85   44   79       1
    86   45   80       1
    87   46   81       1
    88   47   82       1
    89   48   83       1
@<TRIPOS>SUBSTRUCTURE
     1 FAD500      1 GROUP             4 A     FAD     0 **** FAD A 500
