@<TRIPOS>MOLECULE
3mgd_ACO_1_ligand
   85    87     1     0     0
SMALL
NO_CHARGES


@<TRIPOS>ATOM
     1 N1A         18.3100    16.9850    40.3480 N.ar         1 ACO200   0.0000
     2 C2A         17.4850    15.9500    39.8980 C.ar         1 ACO200   0.0000
     3 N3A         16.2230    16.2420    39.3270 N.ar         1 ACO200   0.0000
     4 C4A         15.7930    17.6260    39.2160 C.ar         1 ACO200   0.0000
     5 C5A         16.6370    18.6880    39.6750 C.ar         1 ACO200   0.0000
     6 C6A         17.8740    18.3980    40.2370 C.ar         1 ACO200   0.0000
     7 N6A         18.7240    19.4760    40.7000 N.pl3        1 ACO200   0.0000
     8 N7A         15.9670    19.9380    39.4390 N.2          1 ACO200   0.0000
     9 C8A         14.7440    19.6550    38.8480 C.2          1 ACO200   0.0000
    10 N9A         14.6150    18.2120    38.7250 N.pl3        1 ACO200   0.0000
    11 C1B         13.5150    17.5530    38.0420 C.3          1 ACO200   0.0000
    12 C2B         12.5420    17.2400    39.1910 C.3          1 ACO200   0.0000
    13 O2B         12.9160    16.4580    40.2780 O.3          1 ACO200   0.0000
    14 C3B         11.2690    16.9240    38.4380 C.3          1 ACO200   0.0000
    15 O3B         11.0590    15.6060    37.9850 O.3          1 ACO200   0.0000
    16 P3B         10.2570    14.5140    38.8240 P.3          1 ACO200   0.0000
    17 O7A         10.6880    13.1020    38.2960 O.co2        1 ACO200   0.0000
    18 O8A          8.7390    14.7050    38.6170 O.co2        1 ACO200  -1.0000
    19 O9A         10.5820    14.6320    40.2980 O.co2        1 ACO200  -1.0000
    20 C4B         11.3060    18.0490    37.3460 C.3          1 ACO200   0.0000
    21 O4B         12.7330    18.1290    36.9840 O.3          1 ACO200   0.0000
    22 C5B         10.5620    19.3640    37.4610 C.3          1 ACO200   0.0000
    23 O5B         11.1600    20.2220    38.4010 O.3          1 ACO200   0.0000
    24 P1A         11.6010    21.6840    37.9940 P.3          1 ACO200   0.0000
    25 O1A         12.7120    21.6840    36.9320 O.co2        1 ACO200   0.0000
    26 O2A         12.0040    22.4120    39.2730 O.co2        1 ACO200  -1.0000
    27 O3A         10.2920    22.3470    37.4160 O.3          1 ACO200   0.0000
    28 P2A         10.1540    22.9410    35.9440 P.3          1 ACO200   0.0000
    29 O4A         10.2500    21.8410    34.8340 O.co2        1 ACO200   0.0000
    30 O5A         11.1040    24.0870    35.7310 O.co2        1 ACO200  -1.0000
    31 O6A          8.7290    23.6100    35.8870 O.3          1 ACO200   0.0000
    32 CBP          6.3050    23.4500    35.8480 C.3          1 ACO200   0.0000
    33 CCP          7.6220    22.9230    36.4000 C.3          1 ACO200   0.0000
    34 CDP          5.1350    22.8420    36.6040 C.3          1 ACO200   0.0000
    35 CEP          6.3250    24.9370    35.9790 C.3          1 ACO200   0.0000
    36 CAP          6.2040    23.0320    34.3430 C.3          1 ACO200   0.0000
    37 OAP          6.1590    21.6540    34.1820 O.3          1 ACO200   0.0000
    38 C9P          5.1440    23.7570    33.5510 C.2          1 ACO200   0.0000
    39 O9P          5.2920    24.9100    33.1430 O.2          1 ACO200   0.0000
    40 N8P          3.9310    23.0170    33.2730 N.am         1 ACO200   0.0000
    41 C7P          2.8150    23.6530    32.5750 C.3          1 ACO200   0.0000
    42 C6P          2.2070    24.7450    33.3760 C.3          1 ACO200   0.0000
    43 C5P          1.9270    24.2950    34.7930 C.2          1 ACO200   0.0000
    44 O5P          1.4010    23.2030    35.0110 O.2          1 ACO200   0.0000
    45 N4P          2.3400    25.1550    35.8490 N.am         1 ACO200   0.0000
    46 C3P          1.9100    24.9470    37.2100 C.3          1 ACO200   0.0000
    47 C2P          0.5120    25.3960    37.5510 C.3          1 ACO200   0.0000
    48 S1P          0.1000    25.2560    39.2730 S.3          1 ACO200   0.0000
    49 C            0.6490    26.5790    40.1520 C.2          1 ACO200   0.0000
    50 O            1.2310    27.4880    39.5790 O.2          1 ACO200   0.0000
    51 CH3          0.5470    26.5670    41.6270 C.3          1 ACO200   0.0000
    52 H2A         17.7873    15.0003    39.9797 H            1 ACO200   0.0000
    53 H6A1        18.4175    20.4244    40.6191 H            1 ACO200   0.0000
    54 H6A2        19.6172    19.2717    41.1005 H            1 ACO200   0.0000
    55 H8A         14.0659    20.3295    38.5560 H            1 ACO200   0.0000
    56 H1B         13.8620    16.6774    37.7059 H            1 ACO200   0.0000
    57 H2B         12.3600    18.1358    39.5965 H            1 ACO200   0.0000
    58 H7          12.3243    15.6535    40.3292 H            1 ACO200   0.0000
    59 H3B         10.5098    17.1424    39.0511 H            1 ACO200   0.0000
    60 H4B         10.8876    17.6136    36.5489 H            1 ACO200   0.0000
    61 H5B1         9.6207    19.1797    37.7439 H            1 ACO200   0.0000
    62 H5B2        10.5596    19.8137    36.5678 H            1 ACO200   0.0000
    63 HCP1         7.6156    23.0219    37.3951 H            1 ACO200   0.0000
    64 HCP2         7.7059    21.9554    36.1617 H            1 ACO200   0.0000
    65 HDP1         4.2772    23.1963    36.2316 H            1 ACO200   0.0000
    66 HDP2         5.1554    21.8471    36.5055 H            1 ACO200   0.0000
    67 HDP3         5.2026    23.0826    37.5723 H            1 ACO200   0.0000
    68 HEP1         5.4699    25.3145    35.6235 H            1 ACO200   0.0000
    69 HEP2         6.4239    25.1854    36.9426 H            1 ACO200   0.0000
    70 HEP3         7.0946    25.3071    35.4587 H            1 ACO200   0.0000
    71 HAP          7.0725    23.3139    33.9353 H            1 ACO200   0.0000
    72 H21          6.0950    21.4340    33.2086 H            1 ACO200   0.0000
    73 H8P          3.8559    22.0623    33.5610 H            1 ACO200   0.0000
    74 H7P1         2.1162    22.9627    32.3874 H            1 ACO200   0.0000
    75 H7P2         3.1484    24.0328    31.7121 H            1 ACO200   0.0000
    76 H6P1         1.3480    25.0246    32.9470 H            1 ACO200   0.0000
    77 H6P2         2.8364    25.5217    33.3990 H            1 ACO200   0.0000
    78 H4P          2.9446    25.9242    35.6419 H            1 ACO200   0.0000
    79 H3P1         2.5418    25.4415    37.8069 H            1 ACO200   0.0000
    80 H3P2         1.9692    23.9671    37.4007 H            1 ACO200   0.0000
    81 H2P1        -0.1325    24.8381    37.0283 H            1 ACO200   0.0000
    82 H2P2         0.4167    26.3547    37.2830 H            1 ACO200   0.0000
    83 HH31         0.9148    27.4216    41.9935 H            1 ACO200   0.0000
    84 HH32        -0.4123    26.4753    41.8941 H            1 ACO200   0.0000
    85 HH33         1.0695    25.7960    41.9910 H            1 ACO200   0.0000
@<TRIPOS>BOND
     1    1    2      ar
     2    1    6      ar
     3    2    3      ar
     4    3    4      ar
     5    4    5      ar
     6    4   10       1
     7    5    6      ar
     8    5    8       1
     9    6    7       1
    10    8    9       2
    11    9   10       1
    12   10   11       1
    13   11   12       1
    14   11   21       1
    15   12   13       1
    16   12   14       1
    17   14   15       1
    18   14   20       1
    19   15   16       1
    20   16   17      ar
    21   16   18      ar
    22   16   19      ar
    23   20   21       1
    24   20   22       1
    25   22   23       1
    26   23   24       1
    27   24   25      ar
    28   24   26      ar
    29   24   27       1
    30   27   28       1
    31   28   29      ar
    32   28   30      ar
    33   28   31       1
    34   31   33       1
    35   32   33       1
    36   32   34       1
    37   32   35       1
    38   32   36       1
    39   36   37       1
    40   36   38       1
    41   38   39       2
    42   38   40      am
    43   40   41       1
    44   41   42       1
    45   42   43       1
    46   43   44       2
    47   43   45      am
    48   45   46       1
    49   46   47       1
    50   47   48       1
    51   48   49       1
    52   49   50       2
    53   49   51       1
    54    2   52       1
    55    7   53       1
    56    7   54       1
    57    9   55       1
    58   11   56       1
    59   12   57       1
    60   13   58       1
    61   14   59       1
    62   51   85       1
    63   51   84       1
    64   20   60       1
    65   22   61       1
    66   22   62       1
    67   51   83       1
    68   47   82       1
    69   33   63       1
    70   33   64       1
    71   34   65       1
    72   34   66       1
    73   34   67       1
    74   35   68       1
    75   35   69       1
    76   35   70       1
    77   36   71       1
    78   37   72       1
    79   40   73       1
    80   41   74       1
    81   41   75       1
    82   42   76       1
    83   42   77       1
    84   45   78       1
    85   46   79       1
    86   46   80       1
    87   47   81       1
@<TRIPOS>SUBSTRUCTURE
     1 ACO200      1 GROUP             4 A     ACO     0 **** ACO A 200
