@<TRIPOS>MOLECULE
3rie_MTA_1_ligand
   35    37     1     0     0
SMALL
NO_CHARGES


@<TRIPOS>ATOM
     1 CS          15.8640   116.9450    31.7060 C.3          1 MTA401   0.0000
     2 S5'         16.3110   115.3190    31.0950 S.3          1 MTA401   0.0000
     3 C5'         17.1090   115.5880    29.5080 C.3          1 MTA401   0.0000
     4 C4'         18.5400   116.0330    29.7410 C.3          1 MTA401   0.0000
     5 O4'         19.2270   115.7650    28.5450 O.3          1 MTA401   0.0000
     6 C2'         19.8650   117.8930    28.9850 C.3          1 MTA401   0.0000
     7 O2'         20.8770   118.8010    29.4260 O.3          1 MTA401   0.0000
     8 C3'         18.7150   117.5410    29.9120 C.3          1 MTA401   0.0000
     9 O3'         18.9630   117.7470    31.2720 O.3          1 MTA401   0.0000
    10 C1'         20.4160   116.4980    28.7660 C.3          1 MTA401   0.0000
    11 N9          21.2230   116.4760    27.5700 N.pl3        1 MTA401   0.0000
    12 C8          20.9730   117.1290    26.4160 C.2          1 MTA401   0.0000
    13 N7          21.9580   116.9700    25.5060 N.2          1 MTA401   0.0000
    14 C5          22.8220   116.0720    26.1020 C.ar         1 MTA401   0.0000
    15 C6          24.0760   115.4440    25.7300 C.ar         1 MTA401   0.0000
    16 N6          24.5950   115.6960    24.4990 N.pl3        1 MTA401   0.0000
    17 N1          24.6930   114.6610    26.6620 N.ar         1 MTA401   0.0000
    18 C2          24.2260   114.4710    27.8960 C.ar         1 MTA401   0.0000
    19 N3          23.0480   115.0020    28.3010 N.ar         1 MTA401   0.0000
    20 C4          22.3500   115.7840    27.4580 C.ar         1 MTA401   0.0000
    21 HS1         15.4127   116.8550    32.5938 H            1 MTA401   0.0000
    22 HS2         16.6886   117.5017    31.8062 H            1 MTA401   0.0000
    23 HS3         15.2415   117.3848    31.0587 H            1 MTA401   0.0000
    24 H5'1        16.6166   116.2957    29.0013 H            1 MTA401   0.0000
    25 H5'2        17.1043   114.7373    28.9824 H            1 MTA401   0.0000
    26 H4'         18.9486   115.5366    30.5069 H            1 MTA401   0.0000
    27 H2'         19.4888   118.2279    28.1211 H            1 MTA401   0.0000
    28 H8          21.3239   118.4318    30.2408 H            1 MTA401   0.0000
    29 H3'         17.8836   118.0217    29.6332 H            1 MTA401   0.0000
    30 H10         19.7915   117.2543    31.5381 H            1 MTA401   0.0000
    31 H1'         20.9189   116.1645    29.5634 H            1 MTA401   0.0000
    32 H12         20.1488   117.6712    26.2526 H            1 MTA401   0.0000
    33 H13         25.4582   115.2726    24.2241 H            1 MTA401   0.0000
    34 H14         24.1135   116.3047    23.8684 H            1 MTA401   0.0000
    35 H15         24.7595   113.9220    28.5394 H            1 MTA401   0.0000
@<TRIPOS>BOND
     1    1    2       1
     2    2    3       1
     3    3    4       1
     4    4    5       1
     5    4    8       1
     6    5   10       1
     7    6    7       1
     8    6    8       1
     9    6   10       1
    10    8    9       1
    11   10   11       1
    12   11   12       1
    13   11   20       1
    14   12   13       2
    15   13   14       1
    16   14   15      ar
    17   14   20      ar
    18   15   16       1
    19   15   17      ar
    20   17   18      ar
    21   18   19      ar
    22   19   20      ar
    23    1   21       1
    24    1   22       1
    25    1   23       1
    26    3   24       1
    27    3   25       1
    28    4   26       1
    29    6   27       1
    30    7   28       1
    31    8   29       1
    32    9   30       1
    33   10   31       1
    34   12   32       1
    35   16   33       1
    36   16   34       1
    37   18   35       1
@<TRIPOS>SUBSTRUCTURE
     1 MTA401      1 GROUP             4 A     MTA     0 **** MTA A 401
