@<TRIPOS>MOLECULE
3wec_AUI_1_ligand
   61    62     1     0     0
SMALL
NO_CHARGES


@<TRIPOS>ATOM
     1 O13          5.4000     7.6000    18.6770 O.2          1 AUI502   0.0000
     2 C1           5.0700     6.4000    18.8210 C.2          1 AUI502   0.0000
     3 C4           5.6480     5.6350    19.9420 C.ar         1 AUI502   0.0000
     4 C5           6.5250     6.2390    20.8380 C.ar         1 AUI502   0.0000
     5 C6           7.0470     5.5060    21.9030 C.ar         1 AUI502   0.0000
     6 C7           6.6370     4.1720    22.0370 C.ar         1 AUI502   0.0000
     7 C8           5.7520     3.5290    21.1690 C.ar         1 AUI502   0.0000
     8 C9           5.2100     4.2180    20.0950 C.ar         1 AUI502   0.0000
     9 N10          4.3110     3.6300    19.2470 N.pl3        1 AUI502   0.0000
    10 C3           3.7550     4.2610    18.1920 C.2          1 AUI502   0.0000
    11 C11          2.7690     3.5460    17.2810 C.3          1 AUI502   0.0000
    12 C2           4.1060     5.6940    17.9150 C.2          1 AUI502   0.0000
    13 C12          3.4730     6.4150    16.7550 C.3          1 AUI502   0.0000
    14 C14          1.9770     6.5830    17.0420 C.2          1 AUI502   0.0000
    15 C15          1.2410     7.0870    18.0680 C.2          1 AUI502   0.0000
    16 C26          1.7750     7.6620    19.3660 C.3          1 AUI502   0.0000
    17 C16         -0.2490     7.0020    17.8520 C.3          1 AUI502   0.0000
    18 C17         -1.0270     8.3150    17.7900 C.3          1 AUI502   0.0000
    19 C18         -0.2720     9.4890    18.3490 C.2          1 AUI502   0.0000
    20 C19         -0.5900    10.7920    18.1830 C.2          1 AUI502   0.0000
    21 C27         -1.8030    11.2970    17.4420 C.3          1 AUI502   0.0000
    22 C20          0.3060    11.8080    18.8460 C.3          1 AUI502   0.0000
    23 C21          1.5450    12.2230    18.0440 C.3          1 AUI502   0.0000
    24 O28          2.3560    12.9700    18.9420 O.3          1 AUI502   0.0000
    25 C22          2.4360    11.1060    17.5410 C.2          1 AUI502   0.0000
    26 C23          3.6190    10.6820    18.0670 C.2          1 AUI502   0.0000
    27 C24          4.3110     9.5810    17.3400 C.3          1 AUI502   0.0000
    28 C25          4.3280    11.1790    19.3180 C.3          1 AUI502   0.0000
    29 H1           6.7807     7.1983    20.7180 H            1 AUI502   0.0000
    30 H2           7.6909     5.9171    22.5483 H            1 AUI502   0.0000
    31 H3           7.0025     3.6461    22.8050 H            1 AUI502   0.0000
    32 H4           5.5091     2.5711    21.3222 H            1 AUI502   0.0000
    33 H5           4.0517     2.6796    19.4189 H            1 AUI502   0.0000
    34 H6           2.4673     4.1707    16.5608 H            1 AUI502   0.0000
    35 H7           3.2130     2.7508    16.8681 H            1 AUI502   0.0000
    36 H8           1.9785     3.2465    17.8152 H            1 AUI502   0.0000
    37 H9           3.5978     5.8819    15.9182 H            1 AUI502   0.0000
    38 H10          3.8979     7.3135    16.6443 H            1 AUI502   0.0000
    39 H11          1.4056     6.2399    16.2964 H            1 AUI502   0.0000
    40 H12          1.0107     7.9584    19.9387 H            1 AUI502   0.0000
    41 H13          2.3015     6.9623    19.8489 H            1 AUI502   0.0000
    42 H14          2.3649     8.4444    19.1662 H            1 AUI502   0.0000
    43 H15         -0.6305     6.4626    18.6027 H            1 AUI502   0.0000
    44 H16         -0.3997     6.5230    16.9872 H            1 AUI502   0.0000
    45 H17         -1.8732     8.2060    18.3115 H            1 AUI502   0.0000
    46 H18         -1.2473     8.5071    16.8337 H            1 AUI502   0.0000
    47 H19          0.5413     9.2868    18.8945 H            1 AUI502   0.0000
    48 H20         -1.8125    12.2968    17.4603 H            1 AUI502   0.0000
    49 H21         -1.7697    10.9812    16.4937 H            1 AUI502   0.0000
    50 H22         -2.6310    10.9478    17.8808 H            1 AUI502   0.0000
    51 H23          0.6169    11.4232    19.7151 H            1 AUI502   0.0000
    52 H24         -0.2369    12.6295    19.0203 H            1 AUI502   0.0000
    53 H25          1.2699    12.8038    17.2778 H            1 AUI502   0.0000
    54 H26          2.2107    12.6407    19.8750 H            1 AUI502   0.0000
    55 H27          2.1179    10.6222    16.7257 H            1 AUI502   0.0000
    56 H28          5.1624     9.3532    17.8124 H            1 AUI502   0.0000
    57 H29          3.7189     8.7756    17.3131 H            1 AUI502   0.0000
    58 H30          4.5161     9.8752    16.4065 H            1 AUI502   0.0000
    59 H31          5.1797    10.6700    19.4429 H            1 AUI502   0.0000
    60 H32          4.5329    12.1529    19.2203 H            1 AUI502   0.0000
    61 H33          3.7374    11.0407    20.1130 H            1 AUI502   0.0000
@<TRIPOS>BOND
     1    1    2       2
     2    2    3       1
     3    2   12       1
     4    3    4      ar
     5    3    8      ar
     6    4    5      ar
     7    5    6      ar
     8    6    7      ar
     9    7    8      ar
    10    8    9       1
    11    9   10       1
    12   10   11       1
    13   10   12       2
    14   12   13       1
    15   13   14       1
    16   14   15       2
    17   15   16       1
    18   15   17       1
    19   17   18       1
    20   18   19       1
    21   19   20       2
    22   20   21       1
    23   20   22       1
    24   22   23       1
    25   23   24       1
    26   23   25       1
    27   25   26       2
    28   26   27       1
    29   26   28       1
    30    4   29       1
    31    5   30       1
    32    6   31       1
    33    7   32       1
    34    9   33       1
    35   11   34       1
    36   11   35       1
    37   11   36       1
    38   13   37       1
    39   13   38       1
    40   14   39       1
    41   16   40       1
    42   16   41       1
    43   16   42       1
    44   17   43       1
    45   17   44       1
    46   18   45       1
    47   18   46       1
    48   19   47       1
    49   21   48       1
    50   21   49       1
    51   21   50       1
    52   22   51       1
    53   22   52       1
    54   23   53       1
    55   24   54       1
    56   25   55       1
    57   27   56       1
    58   27   57       1
    59   27   58       1
    60   28   59       1
    61   28   60       1
    62   28   61       1
@<TRIPOS>SUBSTRUCTURE
     1 AUI502      1 GROUP             4 A     AUI     0 **** AUI A 502
