@<TRIPOS>MOLECULE
1hbk_COA_1_ligand
   42    44     1     0     0
SMALL
NO_CHARGES


@<TRIPOS>ATOM
     1 N1A         -0.0490    20.6030    20.2360 N.ar         1 COA1089   0.0000
     2 C2A         -1.3380    20.4760    20.5670 C.ar         1 COA1089   0.0000
     3 N3A         -2.3850    21.2060    20.1650 N.ar         1 COA1089   0.0000
     4 C4A         -1.9950    22.1740    19.3090 C.ar         1 COA1089   0.0000
     5 C5A         -0.7090    22.4270    18.8790 C.ar         1 COA1089   0.0000
     6 C6A          0.3060    21.5880    19.3770 C.ar         1 COA1089   0.0000
     7 N6A          1.5980    21.7160    19.0370 N.pl3        1 COA1089   0.0000
     8 N7A         -0.6910    23.5000    17.9940 N.2          1 COA1089   0.0000
     9 C8A         -1.9480    23.8640    17.9100 C.2          1 COA1089   0.0000
    10 N9A         -2.7910    23.0970    18.6650 N.pl3        1 COA1089   0.0000
    11 C1B         -4.2370    23.1510    18.7940 C.3          1 COA1089   0.0000
    12 C2B         -5.0010    24.4270    18.4090 C.3          1 COA1089   0.0000
    13 O2B         -5.1170    25.2830    19.5240 O.3          1 COA1089   0.0000
    14 C3B         -6.3510    23.8660    17.9000 C.3          1 COA1089   0.0000
    15 O3B         -7.2220    23.9050    19.0330 O.3          1 COA1089   0.0000
    16 P3B         -8.6840    24.5510    18.9670 P.3          1 COA1089   0.0000
    17 O7A         -9.2560    24.1770    20.2760 O.co2        1 COA1089   0.0000
    18 O8A         -9.3530    24.1280    17.7220 O.co2        1 COA1089  -1.0000
    19 O9A         -8.4330    26.1180    19.0050 O.co2        1 COA1089  -1.0000
    20 C4B         -6.1160    22.3690    17.7110 C.3          1 COA1089   0.0000
    21 O4B         -4.7580    22.0850    18.0530 O.3          1 COA1089   0.0000
    22 C5B         -6.4080    21.8200    16.3320 C.3          1 COA1089   0.0000
    23 O5B         -7.7890    21.9560    16.0160 O.3          1 COA1089   0.0000
    24 P1A         -8.2620    22.1500    14.5070 P.3          1 COA1089   0.0000
    25 O1A         -9.5380    21.4240    14.3110 O.co2        1 COA1089   0.0000
    26 O2A         -8.2140    23.5990    14.2290 O.co2        1 COA1089  -1.0000
    27 O3A         -7.1650    21.4380    13.6070 O.3          1 COA1089   0.0000
    28 P2A         -7.4470    19.9990    13.0090 P.3          1 COA1089   0.0000
    29 O4A         -8.2750    19.3280    14.0380 O.co2        1 COA1089   0.0000
    30 O5A         -6.1560    19.3850    12.5940 O.co2        1 COA1089  -1.0000
    31 O6A         -8.3280    20.2300    11.7020 O.co2        1 COA1089  -1.0000
    32 H2A         -1.5488    19.7332    21.2025 H            1 COA1089   0.0000
    33 H6A1         1.8794    22.4373    18.4041 H            1 COA1089   0.0000
    34 H6A2         2.2793    21.0901    19.4166 H            1 COA1089   0.0000
    35 H8A         -2.2601    24.6295    17.3474 H            1 COA1089   0.0000
    36 H1B         -4.4485    22.9662    19.7538 H            1 COA1089   0.0000
    37 H2B         -4.5256    24.8978    17.6658 H            1 COA1089   0.0000
    38 H7          -5.9590    25.8172    19.4480 H            1 COA1089   0.0000
    39 H3B         -6.7096    24.3307    17.0904 H            1 COA1089   0.0000
    40 H4B         -6.7012    21.8847    18.3614 H            1 COA1089   0.0000
    41 H5B1        -6.1593    20.8518    16.3051 H            1 COA1089   0.0000
    42 H5B2        -5.8664    22.3221    15.6578 H            1 COA1089   0.0000
@<TRIPOS>BOND
     1    1    2      ar
     2    1    6      ar
     3    2    3      ar
     4    3    4      ar
     5    4    5      ar
     6    4   10       1
     7    5    6      ar
     8    5    8       1
     9    6    7       1
    10    8    9       2
    11    9   10       1
    12   10   11       1
    13   11   12       1
    14   11   21       1
    15   12   13       1
    16   12   14       1
    17   14   15       1
    18   14   20       1
    19   15   16       1
    20   16   17      ar
    21   16   18      ar
    22   16   19      ar
    23   20   21       1
    24   20   22       1
    25   22   23       1
    26   23   24       1
    27   24   25      ar
    28   24   26      ar
    29   24   27       1
    30   27   28       1
    31   28   29      ar
    32   28   30      ar
    33   28   31      ar
    34    2   32       1
    35    7   33       1
    36    7   34       1
    37    9   35       1
    38   11   36       1
    39   12   37       1
    40   13   38       1
    41   14   39       1
    42   22   41       1
    43   22   42       1
    44   20   40       1
@<TRIPOS>SUBSTRUCTURE
     1 COA1089     1 GROUP             4 A     COA     0 **** COA A1089
