@<TRIPOS>MOLECULE
1ae1_NAP_2_ligand
   73    77     1     0     0
SMALL
NO_CHARGES


@<TRIPOS>ATOM
     1 PA          19.3580   101.6410    15.2360 P.3          1 NAP274   0.0000
     2 O1A         18.9700   100.6600    16.2540 O.co2        1 NAP274   0.0000
     3 O2A         18.3260   102.1490    14.3460 O.co2        1 NAP274  -1.0000
     4 O5B         20.6210   101.1680    14.4140 O.3          1 NAP274   0.0000
     5 C5B         21.8390   100.7730    15.0830 C.3          1 NAP274   0.0000
     6 C4B         22.8080   100.3150    14.0120 C.3          1 NAP274   0.0000
     7 O4B         24.0320    99.9030    14.6660 O.3          1 NAP274   0.0000
     8 C3B         22.3330    99.0860    13.2650 C.3          1 NAP274   0.0000
     9 O3B         22.9130    98.9320    11.9590 O.3          1 NAP274   0.0000
    10 C2B         22.8690    97.9500    14.1130 C.3          1 NAP274   0.0000
    11 O2B         22.9220    96.7530    13.2900 O.3          1 NAP274   0.0000
    12 C1B         24.2450    98.5080    14.4070 C.3          1 NAP274   0.0000
    13 N9A         24.8490    97.7450    15.5200 N.pl3        1 NAP274   0.0000
    14 C8A         24.4240    97.7280    16.8030 C.2          1 NAP274   0.0000
    15 N7A         25.2010    96.9470    17.5490 N.2          1 NAP274   0.0000
    16 C5A         26.1010    96.4850    16.6900 C.ar         1 NAP274   0.0000
    17 C6A         27.1380    95.6070    17.0060 C.ar         1 NAP274   0.0000
    18 N6A         27.3200    95.1470    18.2480 N.pl3        1 NAP274   0.0000
    19 N1A         27.9530    95.2580    15.9700 N.ar         1 NAP274   0.0000
    20 C2A         27.7690    95.7280    14.7220 C.ar         1 NAP274   0.0000
    21 N3A         26.7660    96.5670    14.4420 N.ar         1 NAP274   0.0000
    22 C4A         25.9080    96.9590    15.4100 C.ar         1 NAP274   0.0000
    23 O3          19.9870   102.8970    16.0000 O.3          1 NAP274   0.0000
    24 PN          19.9820   104.4810    15.7760 P.3          1 NAP274   0.0000
    25 O1N         18.7230   104.9890    16.2830 O.co2        1 NAP274   0.0000
    26 O2N         20.3340   104.7520    14.3750 O.co2        1 NAP274  -1.0000
    27 O5D         21.1490   104.9880    16.7280 O.3          1 NAP274   0.0000
    28 C5D         22.4930   105.0200    16.2880 C.3          1 NAP274   0.0000
    29 C4D         23.3400   105.9000    17.1930 C.3          1 NAP274   0.0000
    30 O4D         22.5980   107.1180    17.4500 O.3          1 NAP274   0.0000
    31 C3D         23.5930   105.2990    18.5560 C.3          1 NAP274   0.0000
    32 O3D         24.8420   105.7060    19.1310 O.3          1 NAP274   0.0000
    33 C2D         22.4600   105.8740    19.4110 C.3          1 NAP274   0.0000
    34 O2D         22.8690   105.8500    20.7770 O.3          1 NAP274   0.0000
    35 C1D         22.4500   107.2940    18.8640 C.3          1 NAP274   0.0000
    36 N1N         21.1720   107.9880    19.1300 N.ar         1 NAP274   1.0000
    37 C2N         19.9130   107.5890    18.5700 C.ar         1 NAP274   0.0000
    38 C3N         18.7550   108.3140    18.8910 C.ar         1 NAP274   0.0000
    39 C7N         17.3420   108.0130    18.3790 C.2          1 NAP274   0.0000
    40 O7N         16.3610   108.6520    18.7520 O.2          1 NAP274   0.0000
    41 N7N         17.1690   107.0250    17.5150 N.am         1 NAP274   0.0000
    42 C4N         18.8900   109.4040    19.7530 C.ar         1 NAP274   0.0000
    43 C5N         20.1110   109.7950    20.3000 C.ar         1 NAP274   0.0000
    44 C6N         21.2670   109.0850    19.9910 C.ar         1 NAP274   0.0000
    45 P2B         22.1960    95.3830    13.7020 P.3          1 NAP274   0.0000
    46 O1X         22.2230    94.4910    12.3850 O.co2        1 NAP274   0.0000
    47 O2X         20.7980    95.6680    14.0310 O.co2        1 NAP274  -1.0000
    48 O3X         23.0280    94.7270    14.7070 O.co2        1 NAP274  -1.0000
    49 H5B1        21.6532   100.0248    15.7200 H            1 NAP274   0.0000
    50 H5B2        22.2227   101.5492    15.5833 H            1 NAP274   0.0000
    51 H4B         22.9922   101.0599    13.3707 H            1 NAP274   0.0000
    52 H3B         21.3344    99.0584    13.2190 H            1 NAP274   0.0000
    53 H5          22.2660    98.4595    11.3605 H            1 NAP274   0.0000
    54 H2B         22.3311    97.8131    14.9448 H            1 NAP274   0.0000
    55 H1B         24.8186    98.4099    13.5937 H            1 NAP274   0.0000
    56 H8A         23.6324    98.2341    17.1453 H            1 NAP274   0.0000
    57 H6A1        28.0729    94.5184    18.4431 H            1 NAP274   0.0000
    58 H6A2        26.7033    95.4315    18.9820 H            1 NAP274   0.0000
    59 H2A         28.3922    95.4453    13.9928 H            1 NAP274   0.0000
    60 H5D1        22.5239   105.3827    15.3566 H            1 NAP274   0.0000
    61 H5D2        22.8623   104.0907    16.2962 H            1 NAP274   0.0000
    62 H4D         24.2086   106.1153    16.7466 H            1 NAP274   0.0000
    63 H3D         23.5325   104.3016    18.5170 H            1 NAP274   0.0000
    64 H16         25.5920   105.4236    18.5329 H            1 NAP274   0.0000
    65 H2D         21.5914   105.4010    19.2633 H            1 NAP274   0.0000
    66 H18         23.0597   104.9075    21.0514 H            1 NAP274   0.0000
    67 H1D         23.2171   107.8178    19.2343 H            1 NAP274   0.0000
    68 H2N         19.8609   106.8012    17.9563 H            1 NAP274   0.0000
    69 H7N1        16.2535   106.8159    17.1714 H            1 NAP274   0.0000
    70 H7N2        17.9538   106.4878    17.2060 H            1 NAP274   0.0000
    71 H4N         18.0722   109.9289    19.9891 H            1 NAP274   0.0000
    72 H5N         20.1560   110.5838    20.9130 H            1 NAP274   0.0000
    73 H6N         22.1490   109.3544    20.3776 H            1 NAP274   0.0000
@<TRIPOS>BOND
     1    1    2      ar
     2    1    3      ar
     3    1    4       1
     4    1   23       1
     5    4    5       1
     6    5    6       1
     7    6    7       1
     8    6    8       1
     9    7   12       1
    10    8    9       1
    11    8   10       1
    12   10   11       1
    13   10   12       1
    14   11   45       1
    15   12   13       1
    16   13   14       1
    17   13   22       1
    18   14   15       2
    19   15   16       1
    20   16   17      ar
    21   16   22      ar
    22   17   18       1
    23   17   19      ar
    24   19   20      ar
    25   20   21      ar
    26   21   22      ar
    27   23   24       1
    28   24   25      ar
    29   24   26      ar
    30   24   27       1
    31   27   28       1
    32   28   29       1
    33   29   30       1
    34   29   31       1
    35   30   35       1
    36   31   32       1
    37   31   33       1
    38   33   34       1
    39   33   35       1
    40   35   36       1
    41   36   37      ar
    42   36   44      ar
    43   37   38      ar
    44   38   39       1
    45   38   42      ar
    46   39   40       2
    47   39   41      am
    48   42   43      ar
    49   43   44      ar
    50   45   46      ar
    51   45   47      ar
    52   45   48      ar
    53   43   72       1
    54    5   49       1
    55    5   50       1
    56    6   51       1
    57    8   52       1
    58    9   53       1
    59   10   54       1
    60   12   55       1
    61   14   56       1
    62   18   57       1
    63   18   58       1
    64   20   59       1
    65   44   73       1
    66   28   60       1
    67   28   61       1
    68   29   62       1
    69   31   63       1
    70   32   64       1
    71   33   65       1
    72   34   66       1
    73   35   67       1
    74   37   68       1
    75   41   69       1
    76   41   70       1
    77   42   71       1
@<TRIPOS>SUBSTRUCTURE
     1 NAP274      1 GROUP             4 B     NAP     0 **** NAP B 274
