@<TRIPOS>MOLECULE
2cy0_NAP_1_ligand
   73    77     1     0     0
SMALL
NO_CHARGES


@<TRIPOS>ATOM
     1 PA          29.6960     6.2340    13.3700 P.3          1 NAP1411   0.0000
     2 O1A         30.9200     6.0080    14.2680 O.co2        1 NAP1411   0.0000
     3 O2A         28.6850     5.2150    13.5850 O.co2        1 NAP1411  -1.0000
     4 O5B         30.0540     6.2360    11.7640 O.3          1 NAP1411   0.0000
     5 C5B         29.8310     4.7980    11.1880 C.3          1 NAP1411   0.0000
     6 C4B         29.8680     5.3290     9.6830 C.3          1 NAP1411   0.0000
     7 O4B         31.1900     6.0190     9.3630 O.3          1 NAP1411   0.0000
     8 C3B         29.5100     4.5340     8.5220 C.3          1 NAP1411   0.0000
     9 O3B         28.7770     5.0890     7.4890 O.3          1 NAP1411   0.0000
    10 C2B         30.8710     3.9880     8.2460 C.3          1 NAP1411   0.0000
    11 O2B         30.9370     3.0550     7.2280 O.3          1 NAP1411   0.0000
    12 C1B         31.6780     5.2640     8.1140 C.3          1 NAP1411   0.0000
    13 N9A         33.1600     5.0510     8.1170 N.pl3        1 NAP1411   0.0000
    14 C8A         33.9420     4.7270     9.1970 C.2          1 NAP1411   0.0000
    15 N7A         35.2330     4.5060     8.9020 N.2          1 NAP1411   0.0000
    16 C5A         35.2940     4.6110     7.5540 C.ar         1 NAP1411   0.0000
    17 C6A         36.3970     4.4270     6.6440 C.ar         1 NAP1411   0.0000
    18 N6A         37.6580     4.2080     7.0290 N.pl3        1 NAP1411   0.0000
    19 N1A         36.0980     4.5730     5.3010 N.ar         1 NAP1411   0.0000
    20 C2A         34.8300     4.8040     4.8590 C.ar         1 NAP1411   0.0000
    21 N3A         33.7050     4.9470     5.6550 N.ar         1 NAP1411   0.0000
    22 C4A         33.9980     4.8560     7.0240 C.ar         1 NAP1411   0.0000
    23 O3          28.8660     7.5100    13.9640 O.3          1 NAP1411   0.0000
    24 PN          28.1130     8.8850    13.8310 P.3          1 NAP1411   0.0000
    25 O1N         27.4430     9.1180    15.1540 O.co2        1 NAP1411   0.0000
    26 O2N         27.2130     8.7730    12.6410 O.co2        1 NAP1411  -1.0000
    27 O5D         29.2040     9.9960    13.5210 O.3          1 NAP1411   0.0000
    28 C5D         29.7040    10.1870    12.1890 C.3          1 NAP1411   0.0000
    29 C4D         30.7020    11.3110    12.0920 C.3          1 NAP1411   0.0000
    30 O4D         30.0850    12.6300    11.9250 O.3          1 NAP1411   0.0000
    31 C3D         31.6980    11.5230    13.2670 C.3          1 NAP1411   0.0000
    32 O3D         32.9790    11.9200    12.8560 O.3          1 NAP1411   0.0000
    33 C2D         30.9540    12.5210    14.1360 C.3          1 NAP1411   0.0000
    34 O2D         31.8720    13.2450    14.9510 O.3          1 NAP1411   0.0000
    35 C1D         30.2460    13.3850    13.1150 C.3          1 NAP1411   0.0000
    36 N1N         28.9530    13.9980    13.5970 N.ar         1 NAP1411   1.0000
    37 C2N         28.9490    15.3650    13.7740 C.ar         1 NAP1411   0.0000
    38 C3N         27.8350    16.0620    14.2150 C.ar         1 NAP1411   0.0000
    39 C7N         27.8510    17.5770    14.3940 C.2          1 NAP1411   0.0000
    40 O7N         27.0530    18.1140    15.1700 O.2          1 NAP1411   0.0000
    41 N7N         28.7610    18.2520    13.6480 N.am         1 NAP1411   0.0000
    42 C4N         26.6360    15.3160    14.5320 C.ar         1 NAP1411   0.0000
    43 C5N         26.6420    13.9060    14.3590 C.ar         1 NAP1411   0.0000
    44 C6N         27.7840    13.2410    13.9100 C.ar         1 NAP1411   0.0000
    45 P2B         30.5440     1.4960     7.5350 P.3          1 NAP1411   0.0000
    46 O1X         29.0620     1.4420     7.8130 O.co2        1 NAP1411   0.0000
    47 O2X         31.0100     0.8070     6.2790 O.co2        1 NAP1411  -1.0000
    48 O3X         31.3620     1.1270     8.7500 O.co2        1 NAP1411  -1.0000
    49 H5B1        28.9542     4.3938    11.4486 H            1 NAP1411   0.0000
    50 H5B2        30.5699     4.1604    11.4059 H            1 NAP1411   0.0000
    51 H4B         29.2017     6.0747     9.6764 H            1 NAP1411   0.0000
    52 H3B         28.9679     3.7676     8.8666 H            1 NAP1411   0.0000
    53 H5          28.6253     4.4000     6.7802 H            1 NAP1411   0.0000
    54 H2B         31.1785     3.5322     9.0813 H            1 NAP1411   0.0000
    55 H1B         31.4051     5.7572     7.2880 H            1 NAP1411   0.0000
    56 H8A         33.5802     4.6609    10.1269 H            1 NAP1411   0.0000
    57 H6A1        38.3765     4.0887     6.3437 H            1 NAP1411   0.0000
    58 H6A2        37.8830     4.1634     8.0023 H            1 NAP1411   0.0000
    59 H2A         34.6995     4.8770     3.8702 H            1 NAP1411   0.0000
    60 H5D1        28.9334    10.3917    11.5854 H            1 NAP1411   0.0000
    61 H5D2        30.1461     9.3413    11.8900 H            1 NAP1411   0.0000
    62 H4D         31.2509    11.1418    11.2734 H            1 NAP1411   0.0000
    63 H3D         31.7798    10.6634    13.7714 H            1 NAP1411   0.0000
    64 H16         33.5648    12.0375    13.6579 H            1 NAP1411   0.0000
    65 H2D         30.2851    12.0471    14.7087 H            1 NAP1411   0.0000
    66 H18         32.1723    14.0664    14.4660 H            1 NAP1411   0.0000
    67 H1D         30.8626    14.1416    12.8975 H            1 NAP1411   0.0000
    68 H2N         29.7856    15.8757    13.5758 H            1 NAP1411   0.0000
    69 H7N1        28.8245    19.2476    13.7171 H            1 NAP1411   0.0000
    70 H7N2        29.3683    17.7540    13.0290 H            1 NAP1411   0.0000
    71 H4N         25.8184    15.7845    14.8667 H            1 NAP1411   0.0000
    72 H5N         25.8150    13.3817    14.5621 H            1 NAP1411   0.0000
    73 H6N         27.7833    12.2461    13.8088 H            1 NAP1411   0.0000
@<TRIPOS>BOND
     1    1    2      ar
     2    1    3      ar
     3    1    4       1
     4    1   23       1
     5    4    5       1
     6    5    6       1
     7    6    7       1
     8    6    8       1
     9    7   12       1
    10    8    9       1
    11    8   10       1
    12   10   11       1
    13   10   12       1
    14   11   45       1
    15   12   13       1
    16   13   14       1
    17   13   22       1
    18   14   15       2
    19   15   16       1
    20   16   17      ar
    21   16   22      ar
    22   17   18       1
    23   17   19      ar
    24   19   20      ar
    25   20   21      ar
    26   21   22      ar
    27   23   24       1
    28   24   25      ar
    29   24   26      ar
    30   24   27       1
    31   27   28       1
    32   28   29       1
    33   29   30       1
    34   29   31       1
    35   30   35       1
    36   31   32       1
    37   31   33       1
    38   33   34       1
    39   33   35       1
    40   35   36       1
    41   36   37      ar
    42   36   44      ar
    43   37   38      ar
    44   38   39       1
    45   38   42      ar
    46   39   40       2
    47   39   41      am
    48   42   43      ar
    49   43   44      ar
    50   45   46      ar
    51   45   47      ar
    52   45   48      ar
    53   43   72       1
    54    5   49       1
    55    5   50       1
    56    6   51       1
    57    8   52       1
    58    9   53       1
    59   10   54       1
    60   12   55       1
    61   14   56       1
    62   18   57       1
    63   18   58       1
    64   20   59       1
    65   44   73       1
    66   28   60       1
    67   28   61       1
    68   29   62       1
    69   31   63       1
    70   32   64       1
    71   33   65       1
    72   34   66       1
    73   35   67       1
    74   37   68       1
    75   41   69       1
    76   41   70       1
    77   42   71       1
@<TRIPOS>SUBSTRUCTURE
     1 NAP1411     1 GROUP             4 A     NAP     0 **** NAP A1411
