@<TRIPOS>MOLECULE
4e1z_0MX_1_ligand
   51    55     1     0     0
SMALL
NO_CHARGES


@<TRIPOS>ATOM
     1 C1          31.9500   -13.6710    27.3340 C.ar         1 0MX1201   0.0000
     2 N1          30.4020   -17.4520    28.0310 N.pl3        1 0MX1201   0.0000
     3 O1          35.4980    -7.9940    27.8920 O.2          1 0MX1201   0.0000
     4 S1          34.8510    -7.5930    26.6580 S.o2         1 0MX1201   0.0000
     5 CL1         30.5300    -7.2960    29.4990 Cl           1 0MX1201   0.0000
     6 C2          30.5800   -13.8630    27.0530 C.ar         1 0MX1201   0.0000
     7 N2          31.5440   -18.1480    28.4480 N.2          1 0MX1201   0.0000
     8 O2          35.6770    -6.6130    26.0050 O.2          1 0MX1201   0.0000
     9 C3          29.9650   -15.1050    27.2710 C.ar         1 0MX1201   0.0000
    10 N3          33.8030   -17.7590    28.8160 N.am         1 0MX1201   0.0000
    11 O3          35.1350   -15.9610    28.6480 O.2          1 0MX1201   0.0000
    12 C4          32.7150   -14.7810    27.7460 C.ar         1 0MX1201   0.0000
    13 N4          34.6140    -8.8960    25.7370 N.pl3        1 0MX1201   0.0000
    14 O4          36.3200   -19.0940    29.1090 O.2          1 0MX1201   0.0000
    15 C5          32.1130   -16.0300    27.9680 C.ar         1 0MX1201   0.0000
    16 C6          30.7370   -16.1840    27.7360 C.ar         1 0MX1201   0.0000
    17 C7          32.5670   -17.2900    28.4030 C.2          1 0MX1201   0.0000
    18 C8          32.6670   -12.3910    27.0070 C.ar         1 0MX1201   0.0000
    19 C9          32.1520   -11.5850    25.9740 C.ar         1 0MX1201   0.0000
    20 C10         32.7900   -10.4140    25.5600 C.ar         1 0MX1201   0.0000
    21 C11         33.9940   -10.0370    26.1590 C.ar         1 0MX1201   0.0000
    22 C12         34.5360   -10.8550    27.1760 C.ar         1 0MX1201   0.0000
    23 C13         33.8920   -12.0250    27.5920 C.ar         1 0MX1201   0.0000
    24 C14         33.3810    -6.9770    26.9380 C.ar         1 0MX1201   0.0000
    25 C15         32.8110    -6.0730    26.0300 C.ar         1 0MX1201   0.0000
    26 C16         31.5210    -5.5730    26.2460 C.ar         1 0MX1201   0.0000
    27 C17         30.7930    -5.9640    27.3660 C.ar         1 0MX1201   0.0000
    28 C18         31.3470    -6.8490    28.2950 C.ar         1 0MX1201   0.0000
    29 C19         32.6260    -7.3780    28.0580 C.ar         1 0MX1201   0.0000
    30 C20         34.9980   -17.1330    28.9060 C.2          1 0MX1201   0.0000
    31 C21         36.3030   -17.8280    29.1900 C.2          1 0MX1201   0.0000
    32 C22         37.7150   -19.5290    29.3340 C.2          1 0MX1201   0.0000
    33 C23         38.4440   -18.3630    29.4770 C.2          1 0MX1201   0.0000
    34 C24         37.5790   -17.2970    29.3580 C.2          1 0MX1201   0.0000
    35 H1          29.4819   -17.8379    27.9634 H            1 0MX1201   0.0000
    36 H2          30.0397   -13.1023    26.6932 H            1 0MX1201   0.0000
    37 H3          28.9871   -15.2216    27.0973 H            1 0MX1201   0.0000
    38 H4          33.8133   -18.7196    29.0936 H            1 0MX1201   0.0000
    39 H5          33.7003   -14.6775    27.8821 H            1 0MX1201   0.0000
    40 H6          34.9434    -8.8661    24.7933 H            1 0MX1201   0.0000
    41 H7          31.3029   -11.8596    25.5227 H            1 0MX1201   0.0000
    42 H8          32.3876    -9.8492    24.8396 H            1 0MX1201   0.0000
    43 H9          35.3987   -10.5917    27.6077 H            1 0MX1201   0.0000
    44 H10         34.3009   -12.5983    28.3020 H            1 0MX1201   0.0000
    45 H11         33.3283    -5.7841    25.2244 H            1 0MX1201   0.0000
    46 H12         31.1205    -4.9314    25.5919 H            1 0MX1201   0.0000
    47 H13         29.8685    -5.6097    27.5067 H            1 0MX1201   0.0000
    48 H14         33.0067    -8.0495    28.6937 H            1 0MX1201   0.0000
    49 H15         38.0584   -20.4673    29.3742 H            1 0MX1201   0.0000
    50 H16         39.4290   -18.3035    29.6389 H            1 0MX1201   0.0000
    51 H17         37.8214   -16.3273    29.3868 H            1 0MX1201   0.0000
@<TRIPOS>BOND
     1    1    6      ar
     2    1   12      ar
     3    1   18       1
     4    2    7       1
     5    2   16       1
     6    3    4       2
     7    4    8       2
     8    4   13       1
     9    4   24       1
    10    5   28       1
    11    6    9      ar
    12    7   17       2
    13    9   16      ar
    14   10   17       1
    15   10   30      am
    16   11   30       2
    17   12   15      ar
    18   13   21       1
    19   14   31       1
    20   14   32       1
    21   15   16      ar
    22   15   17       1
    23   18   19      ar
    24   18   23      ar
    25   19   20      ar
    26   20   21      ar
    27   21   22      ar
    28   22   23      ar
    29   24   25      ar
    30   24   29      ar
    31   25   26      ar
    32   26   27      ar
    33   27   28      ar
    34   28   29      ar
    35   30   31       1
    36   31   34       2
    37   32   33       2
    38   33   34       1
    39    2   35       1
    40    6   36       1
    41    9   37       1
    42   10   38       1
    43   12   39       1
    44   13   40       1
    45   19   41       1
    46   20   42       1
    47   22   43       1
    48   23   44       1
    49   25   45       1
    50   26   46       1
    51   27   47       1
    52   29   48       1
    53   32   49       1
    54   33   50       1
    55   34   51       1
@<TRIPOS>SUBSTRUCTURE
     1 0MX1201     1 GROUP             4 A     0MX     0 **** 0MX A1201
