@<TRIPOS>MOLECULE
4dm8_REA_2_ligand
   49    49     1     0     0
SMALL
NO_CHARGES


@<TRIPOS>ATOM
     1 C1          -8.7800    13.0870    43.2700 C.3          1 REA1501   0.0000
     2 C2          -8.9360    14.6460    43.0530 C.3          1 REA1501   0.0000
     3 C3          -9.3030    15.4870    44.2660 C.3          1 REA1501   0.0000
     4 C4          -8.4110    15.2430    45.4570 C.3          1 REA1501   0.0000
     5 C5          -8.2100    13.7470    45.7800 C.2          1 REA1501   0.0000
     6 C6          -8.3710    12.7340    44.8100 C.2          1 REA1501   0.0000
     7 C7          -8.1880    11.2500    45.0590 C.2          1 REA1501   0.0000
     8 C8          -8.5030    10.4400    46.1150 C.2          1 REA1501   0.0000
     9 C9          -8.2290     9.0080    46.1790 C.2          1 REA1501   0.0000
    10 C10         -8.5620     8.2620    47.2610 C.2          1 REA1501   0.0000
    11 C11         -9.2200     8.6260    48.5000 C.2          1 REA1501   0.0000
    12 C12         -9.3700     7.5910    49.3590 C.2          1 REA1501   0.0000
    13 C13        -10.0390     7.6010    50.6510 C.2          1 REA1501   0.0000
    14 C14        -10.0540     6.4150    51.3270 C.2          1 REA1501   0.0000
    15 C15        -10.6430     5.9820    52.6210 C.2          1 REA1501   0.0000
    16 C16         -7.6990    12.5940    42.2840 C.3          1 REA1501   0.0000
    17 C17        -10.1570    12.4190    42.9160 C.3          1 REA1501   0.0000
    18 C18         -7.8290    13.6120    47.2620 C.3          1 REA1501   0.0000
    19 C19         -7.5410     8.3190    44.9950 C.3          1 REA1501   0.0000
    20 C20        -10.6950     8.8940    51.1620 C.3          1 REA1501   0.0000
    21 O1         -10.4640     4.8140    52.9710 O.co2        1 REA1501   0.0000
    22 O2         -11.3120     6.7510    53.3460 O.co2        1 REA1501  -1.0000
    23 H1          -9.6491    14.7835    42.3655 H            1 REA1501   0.0000
    24 H2          -8.0645    14.9890    42.7025 H            1 REA1501   0.0000
    25 H3         -10.2446    15.2735    44.5264 H            1 REA1501   0.0000
    26 H4          -9.2376    16.4524    44.0137 H            1 REA1501   0.0000
    27 H5          -8.8195    15.6868    46.2546 H            1 REA1501   0.0000
    28 H6          -7.5165    15.6496    45.2710 H            1 REA1501   0.0000
    29 H7          -7.7500    10.7674    44.3005 H            1 REA1501   0.0000
    30 H8          -8.9547    10.8603    46.9019 H            1 REA1501   0.0000
    31 H9          -8.3109     7.2965    47.1926 H            1 REA1501   0.0000
    32 H10         -9.5335     9.5540    48.7011 H            1 REA1501   0.0000
    33 H11         -8.9752     6.7181    49.0725 H            1 REA1501   0.0000
    34 H12         -9.5658     5.6834    50.8512 H            1 REA1501   0.0000
    35 H13         -7.5729    11.6080    42.3932 H            1 REA1501   0.0000
    36 H14         -7.9875    12.7914    41.3471 H            1 REA1501   0.0000
    37 H15         -6.8364    13.0633    42.4731 H            1 REA1501   0.0000
    38 H16        -10.0901    11.4295    43.0438 H            1 REA1501   0.0000
    39 H17        -10.8689    12.7851    43.5153 H            1 REA1501   0.0000
    40 H18        -10.3886    12.6172    41.9636 H            1 REA1501   0.0000
    41 H19         -7.6956    12.6464    47.4852 H            1 REA1501   0.0000
    42 H20         -6.9819    14.1144    47.4355 H            1 REA1501   0.0000
    43 H21         -8.5615    13.9873    47.8300 H            1 REA1501   0.0000
    44 H22         -7.4269     7.3461    45.1959 H            1 REA1501   0.0000
    45 H23         -8.1026     8.4263    44.1746 H            1 REA1501   0.0000
    46 H24         -6.6446     8.7351    44.8421 H            1 REA1501   0.0000
    47 H25        -11.1063     8.7275    52.0581 H            1 REA1501   0.0000
    48 H26        -10.0020     9.6106    51.2413 H            1 REA1501   0.0000
    49 H27        -11.4034     9.1851    50.5190 H            1 REA1501   0.0000
@<TRIPOS>BOND
     1    1    2       1
     2    1    6       1
     3    1   16       1
     4    1   17       1
     5    2    3       1
     6    3    4       1
     7    4    5       1
     8    5    6       2
     9    5   18       1
    10    6    7       1
    11    7    8       2
    12    8    9       1
    13    9   10       2
    14    9   19       1
    15   10   11       1
    16   11   12       2
    17   12   13       1
    18   13   14       2
    19   13   20       1
    20   14   15       1
    21   15   21      ar
    22   15   22      ar
    23    2   23       1
    24    2   24       1
    25    3   25       1
    26    3   26       1
    27    4   27       1
    28    4   28       1
    29    7   29       1
    30    8   30       1
    31   10   31       1
    32   11   32       1
    33   12   33       1
    34   14   34       1
    35   16   35       1
    36   16   36       1
    37   16   37       1
    38   17   38       1
    39   17   39       1
    40   17   40       1
    41   18   41       1
    42   18   42       1
    43   18   43       1
    44   19   44       1
    45   19   45       1
    46   19   46       1
    47   20   47       1
    48   20   48       1
    49   20   49       1
@<TRIPOS>SUBSTRUCTURE
     1 REA1501     1 GROUP             4 B     REA     0 **** REA B1501
