@<TRIPOS>MOLECULE
4wbd_ADP_1_ligand
   39    41     1     0     0
SMALL
NO_CHARGES


@<TRIPOS>ATOM
     1 PB          33.5440    -5.6000    13.1270 P.3          1 ADP601   0.0000
     2 O1B         33.1270    -4.6710    12.0720 O.co2        1 ADP601   0.0000
     3 O2B         32.6350    -6.7450    13.1020 O.co2        1 ADP601  -1.0000
     4 O3B         34.9480    -5.8580    13.2380 O.co2        1 ADP601  -1.0000
     5 PA          32.6740    -4.9290    15.7640 P.3          1 ADP601   0.0000
     6 O1A         32.5320    -3.5450    16.1710 O.co2        1 ADP601   0.0000
     7 O2A         33.4320    -5.8160    16.5510 O.co2        1 ADP601  -1.0000
     8 O3A         33.3310    -4.6990    14.3970 O.3          1 ADP601   0.0000
     9 O5'         31.2170    -5.4800    15.5780 O.3          1 ADP601   0.0000
    10 C5'         30.8760    -6.8230    15.5760 C.3          1 ADP601   0.0000
    11 C4'         29.4620    -6.9600    15.0040 C.3          1 ADP601   0.0000
    12 O4'         28.5300    -6.3610    15.8360 O.3          1 ADP601   0.0000
    13 C3'         29.2640    -6.2610    13.6810 C.3          1 ADP601   0.0000
    14 O3'         29.7810    -7.0110    12.6140 O.3          1 ADP601   0.0000
    15 C2'         27.7820    -6.0050    13.6470 C.3          1 ADP601   0.0000
    16 O2'         27.1120    -7.1710    13.2330 O.3          1 ADP601   0.0000
    17 C1'         27.5330    -5.7010    15.1130 C.3          1 ADP601   0.0000
    18 N9          27.5590    -4.2470    15.4200 N.pl3        1 ADP601   0.0000
    19 C8          28.5840    -3.4220    15.3540 C.2          1 ADP601   0.0000
    20 N7          28.2160    -2.1890    15.7130 N.2          1 ADP601   0.0000
    21 C5          26.9330    -2.2210    16.0170 C.ar         1 ADP601   0.0000
    22 C6          25.9210    -1.2670    16.4440 C.ar         1 ADP601   0.0000
    23 N6          26.2590    -0.0030    16.6480 N.pl3        1 ADP601   0.0000
    24 N1          24.7010    -1.7240    16.6090 N.ar         1 ADP601   0.0000
    25 C2          24.3850    -2.9830    16.4230 C.ar         1 ADP601   0.0000
    26 N3          25.2310    -3.9070    16.0340 N.ar         1 ADP601   0.0000
    27 C4          26.4940    -3.5900    15.8270 C.ar         1 ADP601   0.0000
    28 H5'1        30.8986    -7.1789    16.5103 H            1 ADP601   0.0000
    29 H5'2        31.5212    -7.3347    15.0086 H            1 ADP601   0.0000
    30 H4'         29.2392    -7.9295    14.9021 H            1 ADP601   0.0000
    31 H3'         29.7386    -5.3813    13.7114 H            1 ADP601   0.0000
    32 H5          30.7614    -7.1532    12.7507 H            1 ADP601   0.0000
    33 H2'         27.5561    -5.2238    13.0650 H            1 ADP601   0.0000
    34 H7          26.2722    -6.9198    12.7517 H            1 ADP601   0.0000
    35 H1'         26.6422    -6.0723    15.3749 H            1 ADP601   0.0000
    36 H9          29.5081    -3.6823    15.0743 H            1 ADP601   0.0000
    37 H10         25.5685     0.6581    16.9416 H            1 ADP601   0.0000
    38 H11         27.2047     0.2904    16.5085 H            1 ADP601   0.0000
    39 H12         23.4375    -3.2565    16.5885 H            1 ADP601   0.0000
@<TRIPOS>BOND
     1    1    2      ar
     2    1    3      ar
     3    1    4      ar
     4    1    8       1
     5    5    6      ar
     6    5    7      ar
     7    5    8       1
     8    5    9       1
     9    9   10       1
    10   10   11       1
    11   11   12       1
    12   11   13       1
    13   12   17       1
    14   13   14       1
    15   13   15       1
    16   15   16       1
    17   15   17       1
    18   17   18       1
    19   18   19       1
    20   18   27       1
    21   19   20       2
    22   20   21       1
    23   21   22      ar
    24   21   27      ar
    25   22   23       1
    26   22   24      ar
    27   24   25      ar
    28   25   26      ar
    29   26   27      ar
    30   25   39       1
    31   23   38       1
    32   23   37       1
    33   10   28       1
    34   10   29       1
    35   11   30       1
    36   13   31       1
    37   14   32       1
    38   15   33       1
    39   16   34       1
    40   17   35       1
    41   19   36       1
@<TRIPOS>SUBSTRUCTURE
     1 ADP601      1 GROUP             4 A     ADP     0 **** ADP A 601
