@<TRIPOS>MOLECULE
1kkq_471_1_ligand
   81    84     1     0     0
SMALL
NO_CHARGES


@<TRIPOS>ATOM
     1 N           73.3010    29.3380    26.3950 N.pl3        1 471775   0.0000
     2 CA          72.7480    29.0630    27.7190 C.3          1 471775   0.0000
     3 CB          73.8590    28.9180    28.7580 C.3          1 471775   0.0000
     4 CG          75.1810    28.3010    28.3640 C.ar         1 471775   0.0000
     5 CD1         76.1160    29.0330    27.7400 C.ar         1 471775   0.0000
     6 CD2         75.4560    27.0130    28.6190 C.ar         1 471775   0.0000
     7 CE1         77.2910    28.4990    27.3750 C.ar         1 471775   0.0000
     8 CE2         76.6310    26.4790    28.2550 C.ar         1 471775   0.0000
     9 CZ          77.5640    27.2100    27.6250 C.ar         1 471775   0.0000
    10 OH          78.7660    26.6740    27.2410 O.3          1 471775   0.0000
    11 C1A         72.9910    28.7860    25.1550 C.2          1 471775   0.0000
    12 C1F         73.6520    29.1940    24.0740 C.2          1 471775   0.0000
    13 C1B         71.9440    27.7310    24.9480 C.3          1 471775   0.0000
    14 C1H         75.3750    30.5410    22.7220 C.ar         1 471775   0.0000
    15 C1I         74.7370    30.7140    21.5550 C.ar         1 471775   0.0000
    16 C1J         75.4150    31.0310    20.4420 C.ar         1 471775   0.0000
    17 C1K         76.7480    31.1860    20.4490 C.ar         1 471775   0.0000
    18 C1N         77.5390    31.5450    19.2120 C.3          1 471775   0.0000
    19 F1Q         76.7870    31.5670    18.0750 F            1 471775   0.0000
    20 F1P         78.0850    32.7870    19.3410 F            1 471775   0.0000
    21 F1O         78.5640    30.6760    18.9850 F            1 471775   0.0000
    22 C1L         77.3830    31.0100    21.6170 C.ar         1 471775   0.0000
    23 C1M         76.7070    30.6930    22.7320 C.ar         1 471775   0.0000
    24 C1G         74.7450    30.2120    23.9300 C.2          1 471775   0.0000
    25 O1G         75.1210    30.8060    24.9390 O.2          1 471775   0.0000
    26 O3F         80.4760    25.6080    21.7450 O.2          1 471775   0.0000
    27 C3G         80.3680    24.2810    22.0700 C.2          1 471775   0.0000
    28 N3H         80.2490    24.1640    23.4410 N.2          1 471775   0.0000
    29 C3C         80.2860    25.4400    23.9660 C.2          1 471775   0.0000
    30 C3D         80.4280    26.3320    22.9070 C.2          1 471775   0.0000
    31 C3E         80.5220    27.8390    22.9190 C.3          1 471775   0.0000
    32 C3I         80.3820    23.3000    21.1560 C.ar         1 471775   0.0000
    33 C3N         80.2790    22.0010    21.4770 C.ar         1 471775   0.0000
    34 C3M         80.2990    21.0430    20.5370 C.ar         1 471775   0.0000
    35 C3L         80.4240    21.3730    19.2440 C.ar         1 471775   0.0000
    36 C3K         80.5270    22.6660    18.9030 C.ar         1 471775   0.0000
    37 C3J         80.5060    23.6090    19.8560 C.ar         1 471775   0.0000
    38 C3A         78.7840    26.0100    25.9790 C.3          1 471775   0.0000
    39 C3B         80.1870    25.7310    25.4450 C.3          1 471775   0.0000
    40 C4A         71.7930    30.1840    28.1210 C.3          1 471775   0.0000
    41 N4B         70.3870    29.8840    27.8630 N.am         1 471775   0.0000
    42 C4C         69.6470    30.4980    26.9570 C.2          1 471775   0.0000
    43 O4C         70.0640    31.3960    26.2270 O.2          1 471775   0.0000
    44 C4D         68.2010    30.0440    26.8410 C.3          1 471775   0.0000
    45 C4E         67.9990    28.8270    25.9410 C.3          1 471775   0.0000
    46 H1          74.0177    30.0351    26.3764 H            1 471775   0.0000
    47 HA          72.2348    28.2057    27.6787 H            1 471775   0.0000
    48 HB1         73.4893    28.3602    29.5011 H            1 471775   0.0000
    49 HB2         74.0585    29.8368    29.0985 H            1 471775   0.0000
    50 HD1         75.9333    29.9962    27.5430 H            1 471775   0.0000
    51 HD2         74.7777    26.4452    29.0854 H            1 471775   0.0000
    52 HE1         77.9705    29.0679    26.9117 H            1 471775   0.0000
    53 HE2         76.8158    25.5172    28.4569 H            1 471775   0.0000
    54 H1F         73.3759    28.7510    23.2210 H            1 471775   0.0000
    55 H1B1        71.8998    27.4910    23.9782 H            1 471775   0.0000
    56 H1B2        72.1790    26.9188    25.4820 H            1 471775   0.0000
    57 H1B3        71.0555    28.0801    25.2459 H            1 471775   0.0000
    58 H1I         73.7438    30.6053    21.5142 H            1 471775   0.0000
    59 H1J         74.9145    31.1550    19.5852 H            1 471775   0.0000
    60 H1L         78.3765    31.1167    21.6577 H            1 471775   0.0000
    61 H1M         77.2074    30.5675    23.5886 H            1 471775   0.0000
    62 H3E1        80.4669    28.1689    23.8614 H            1 471775   0.0000
    63 H3E2        81.3930    28.1219    22.5172 H            1 471775   0.0000
    64 H3E3        79.7684    28.2242    22.3863 H            1 471775   0.0000
    65 H3N         80.1852    21.7409    22.4380 H            1 471775   0.0000
    66 H3M         80.2205    20.0819    20.8018 H            1 471775   0.0000
    67 H3L         80.4403    20.6623    18.5407 H            1 471775   0.0000
    68 H3K         80.6191    22.9258    17.9417 H            1 471775   0.0000
    69 H3J         80.5850    24.5699    19.5905 H            1 471775   0.0000
    70 H3A1        78.3029    26.5827    25.3153 H            1 471775   0.0000
    71 H3A2        78.3049    25.1376    26.0757 H            1 471775   0.0000
    72 H3B1        80.7529    26.5326    25.6378 H            1 471775   0.0000
    73 H3B2        80.5503    24.9402    25.9376 H            1 471775   0.0000
    74 H4A1        72.0389    31.0063    27.6079 H            1 471775   0.0000
    75 H4A2        71.9038    30.3563    29.0998 H            1 471775   0.0000
    76 H4B         69.9556    29.1657    28.4088 H            1 471775   0.0000
    77 H4D1        67.6630    30.8012    26.4705 H            1 471775   0.0000
    78 H4D2        67.8692    29.8160    27.7564 H            1 471775   0.0000
    79 H4E1        67.0280    28.5894    25.9146 H            1 471775   0.0000
    80 H4E2        68.3153    29.0399    25.0165 H            1 471775   0.0000
    81 H4E3        68.5214    28.0547    26.3025 H            1 471775   0.0000
@<TRIPOS>BOND
     1    1    2       1
     2    1   11       1
     3    2    3       1
     4    2   40       1
     5    3    4       1
     6    4    5      ar
     7    4    6      ar
     8    5    7      ar
     9    6    8      ar
    10    7    9      ar
    11    8    9      ar
    12    9   10       1
    13   10   38       1
    14   11   12       2
    15   11   13       1
    16   12   24       1
    17   14   15      ar
    18   14   23      ar
    19   14   24       1
    20   15   16      ar
    21   16   17      ar
    22   17   18       1
    23   17   22      ar
    24   18   19       1
    25   18   20       1
    26   18   21       1
    27   22   23      ar
    28   24   25       2
    29   26   27       1
    30   26   30       1
    31   27   28       2
    32   27   32       1
    33   28   29       1
    34   29   30       2
    35   29   39       1
    36   30   31       1
    37   32   33      ar
    38   32   37      ar
    39   33   34      ar
    40   34   35      ar
    41   35   36      ar
    42   36   37      ar
    43   38   39       1
    44   40   41       1
    45   41   42      am
    46   42   43       2
    47   42   44       1
    48   44   45       1
    49    1   46       1
    50    2   47       1
    51    3   48       1
    52    3   49       1
    53    5   50       1
    54    6   51       1
    55    7   52       1
    56    8   53       1
    57   12   54       1
    58   13   55       1
    59   13   56       1
    60   13   57       1
    61   15   58       1
    62   16   59       1
    63   22   60       1
    64   23   61       1
    65   31   62       1
    66   31   63       1
    67   31   64       1
    68   33   65       1
    69   34   66       1
    70   35   67       1
    71   36   68       1
    72   37   69       1
    73   38   70       1
    74   38   71       1
    75   39   72       1
    76   39   73       1
    77   40   74       1
    78   40   75       1
    79   41   76       1
    80   44   77       1
    81   44   78       1
    82   45   79       1
    83   45   80       1
    84   45   81       1
@<TRIPOS>SUBSTRUCTURE
     1 471775      1 GROUP             4 A     471     0 **** 471 A 775
