@<TRIPOS>MOLECULE
3d64_NAD_2_ligand
   70    74     1     0     0
SMALL
NO_CHARGES


@<TRIPOS>ATOM
     1 PA          71.7270    -0.2870    -4.8440 P.3          1 NAD601   0.0000
     2 O1A         70.9260    -0.9150    -5.9250 O.co2        1 NAD601   0.0000
     3 O2A         72.8870    -1.0680    -4.3580 O.co2        1 NAD601  -1.0000
     4 O5B         70.7080    -0.0750    -3.6330 O.3          1 NAD601   0.0000
     5 C5B         69.4340     0.4380    -3.8450 C.3          1 NAD601   0.0000
     6 C4B         68.5180    -0.2490    -2.8660 C.3          1 NAD601   0.0000
     7 O4B         67.2330     0.3470    -2.8580 O.3          1 NAD601   0.0000
     8 C3B         68.2680    -1.7260    -3.1480 C.3          1 NAD601   0.0000
     9 O3B         68.7780    -2.8820    -2.4770 O.3          1 NAD601   0.0000
    10 C2B         66.8040    -1.8000    -3.5580 C.3          1 NAD601   0.0000
    11 O2B         66.1790    -3.0160    -3.2030 O.3          1 NAD601   0.0000
    12 C1B         66.2280    -0.6370    -2.7860 C.3          1 NAD601   0.0000
    13 N9A         64.9770    -0.1280    -3.3140 N.pl3        1 NAD601   0.0000
    14 C8A         64.6030     0.1070    -4.6200 C.2          1 NAD601   0.0000
    15 N7A         63.3420     0.6020    -4.5940 N.2          1 NAD601   0.0000
    16 C5A         62.9280     0.6700    -3.2970 C.ar         1 NAD601   0.0000
    17 C6A         61.7700     1.1060    -2.6980 C.ar         1 NAD601   0.0000
    18 N6A         60.7380     1.5370    -3.4210 N.pl3        1 NAD601   0.0000
    19 N1A         61.6750     1.0560    -1.3360 N.ar         1 NAD601   0.0000
    20 C2A         62.7070     0.5880    -0.5540 C.ar         1 NAD601   0.0000
    21 N3A         63.8660     0.1530    -1.1500 N.ar         1 NAD601   0.0000
    22 C4A         63.9530     0.2060    -2.4900 C.ar         1 NAD601   0.0000
    23 O3          72.1990     1.1810    -5.2810 O.3          1 NAD601   0.0000
    24 PN          73.2080     2.1100    -4.4450 P.3          1 NAD601   0.0000
    25 O1N         74.5920     1.9460    -4.9230 O.co2        1 NAD601   0.0000
    26 O2N         72.8510     2.0450    -2.9870 O.co2        1 NAD601  -1.0000
    27 O5D         72.7300     3.5540    -4.9870 O.3          1 NAD601   0.0000
    28 C5D         71.4100     3.9840    -4.7840 C.3          1 NAD601   0.0000
    29 C4D         71.3000     5.3320    -5.4580 C.3          1 NAD601   0.0000
    30 O4D         72.2480     6.2150    -4.8970 O.3          1 NAD601   0.0000
    31 C3D         71.6400     5.2430    -6.9450 C.3          1 NAD601   0.0000
    32 O3D         70.7270     6.0590    -7.6160 O.3          1 NAD601   0.0000
    33 C2D         73.0330     5.8120    -7.0590 C.3          1 NAD601   0.0000
    34 O2D         73.2710     6.3640    -8.3250 O.3          1 NAD601   0.0000
    35 C1D         73.0110     6.8160    -5.9250 C.3          1 NAD601   0.0000
    36 N1N         74.3390     7.2420    -5.4690 N.ar         1 NAD601   1.0000
    37 C2N         74.4080     8.4900    -4.9420 C.ar         1 NAD601   0.0000
    38 C3N         75.6010     9.0110    -4.4990 C.ar         1 NAD601   0.0000
    39 C7N         75.5710    10.3350    -3.8150 C.2          1 NAD601   0.0000
    40 O7N         76.6990    11.1270    -3.8860 O.2          1 NAD601   0.0000
    41 N7N         74.4660    10.7370    -3.1870 N.am         1 NAD601   0.0000
    42 C4N         76.7500     8.2550    -4.6000 C.ar         1 NAD601   0.0000
    43 C5N         76.6780     6.9660    -5.1280 C.ar         1 NAD601   0.0000
    44 C6N         75.4540     6.4780    -5.5600 C.ar         1 NAD601   0.0000
    45 H5B1        69.1391     0.2504    -4.7819 H            1 NAD601   0.0000
    46 H5B2        69.4297     1.4252    -3.6856 H            1 NAD601   0.0000
    47 H4B         68.9119    -0.1639    -1.9508 H            1 NAD601   0.0000
    48 H3B         68.7126    -1.8202    -4.0387 H            1 NAD601   0.0000
    49 H5          68.4961    -2.8621    -1.5178 H            1 NAD601   0.0000
    50 H2B         66.7130    -1.6400    -4.5409 H            1 NAD601   0.0000
    51 H7          66.2178    -3.1334    -2.2107 H            1 NAD601   0.0000
    52 H1B         66.0980    -0.9065    -1.8318 H            1 NAD601   0.0000
    53 H8A         65.1589    -0.0573    -5.4348 H            1 NAD601   0.0000
    54 H6A1        59.9045     1.8500    -2.9657 H            1 NAD601   0.0000
    55 H6A2        60.7966     1.5476    -4.4192 H            1 NAD601   0.0000
    56 H2A         62.6136     0.5648     0.4414 H            1 NAD601   0.0000
    57 H5D1        71.2190     4.0683    -3.8060 H            1 NAD601   0.0000
    58 H5D2        70.7673     3.3372    -5.1946 H            1 NAD601   0.0000
    59 H4D         70.3777     5.6997    -5.3393 H            1 NAD601   0.0000
    60 H3D         71.6007     4.2997    -7.2747 H            1 NAD601   0.0000
    61 H17         70.5657     5.6947    -8.5332 H            1 NAD601   0.0000
    62 H2D         73.7074     5.0989    -6.8676 H            1 NAD601   0.0000
    63 H19         74.2014     6.7290    -8.3600 H            1 NAD601   0.0000
    64 H1D         72.5185     7.6270    -6.2407 H            1 NAD601   0.0000
    65 H2N         73.5763     9.0411    -4.8744 H            1 NAD601   0.0000
    66 H7N1        74.4467    11.6254    -2.7283 H            1 NAD601   0.0000
    67 H7N2        73.6564    10.1502    -3.1746 H            1 NAD601   0.0000
    68 H4N         77.6272     8.6277    -4.2973 H            1 NAD601   0.0000
    69 H5N         77.4998     6.4001    -5.1943 H            1 NAD601   0.0000
    70 H6N         75.3940     5.5556    -5.9414 H            1 NAD601   0.0000
@<TRIPOS>BOND
     1    1    2      ar
     2    1    3      ar
     3    1    4       1
     4    1   23       1
     5    4    5       1
     6    5    6       1
     7    6    7       1
     8    6    8       1
     9    7   12       1
    10    8    9       1
    11    8   10       1
    12   10   11       1
    13   10   12       1
    14   12   13       1
    15   13   14       1
    16   13   22       1
    17   14   15       2
    18   15   16       1
    19   16   17      ar
    20   16   22      ar
    21   17   18       1
    22   17   19      ar
    23   19   20      ar
    24   20   21      ar
    25   21   22      ar
    26   23   24       1
    27   24   25      ar
    28   24   26      ar
    29   24   27       1
    30   27   28       1
    31   28   29       1
    32   29   30       1
    33   29   31       1
    34   30   35       1
    35   31   32       1
    36   31   33       1
    37   33   34       1
    38   33   35       1
    39   35   36       1
    40   36   37      ar
    41   36   44      ar
    42   37   38      ar
    43   38   39       1
    44   38   42      ar
    45   39   40       2
    46   39   41      am
    47   42   43      ar
    48   43   44      ar
    49   44   70       1
    50    5   45       1
    51    5   46       1
    52    6   47       1
    53    8   48       1
    54    9   49       1
    55   10   50       1
    56   11   51       1
    57   12   52       1
    58   14   53       1
    59   18   54       1
    60   18   55       1
    61   20   56       1
    62   43   69       1
    63   28   57       1
    64   28   58       1
    65   29   59       1
    66   31   60       1
    67   32   61       1
    68   33   62       1
    69   34   63       1
    70   35   64       1
    71   37   65       1
    72   41   66       1
    73   41   67       1
    74   42   68       1
@<TRIPOS>SUBSTRUCTURE
     1 NAD601      1 GROUP             4 B     NAD     0 **** NAD B 601
