@<TRIPOS>MOLECULE
4g8c_C6L_2_ligand
   33    32     1     0     0
SMALL
NO_CHARGES


@<TRIPOS>ATOM
     1 O4           0.2990   -21.3900    45.6410 O.2          1 C6L301   0.0000
     2 C5          -0.6760   -21.9450    45.1530 C.2          1 C6L301   0.0000
     3 C6          -1.7260   -21.1420    44.4190 C.3          1 C6L301   0.0000
     4 C7          -1.9930   -19.8530    45.1820 C.3          1 C6L301   0.0000
     5 C8          -2.6960   -20.1570    46.4980 C.3          1 C6L301   0.0000
     6 C9          -2.9290   -18.8850    47.3000 C.3          1 C6L301   0.0000
     7 C10         -3.5540   -17.8130    46.4350 C.3          1 C6L301   0.0000
     8 N1          -0.8690   -23.2610    45.2260 N.am         1 C6L301   0.0000
     9 C3           0.0930   -24.1170    45.9070 C.3          1 C6L301   0.0000
    10 C4           0.8860   -24.9280    44.9240 C.2          1 C6L301   0.0000
    11 O2           1.0920   -24.4570    43.7820 O.co2        1 C6L301   0.0000
    12 O1           1.3140   -26.0450    45.2900 O.co2        1 C6L301  -1.0000
    13 C2          -0.7230   -25.0370    46.8100 C.3          1 C6L301   0.0000
    14 C1          -1.1370   -24.3260    48.0930 C.3          1 C6L301   0.0000
    15 O3          -0.0150   -24.2310    48.9800 O.3          1 C6L301   0.0000
    16 H1          -2.5703   -21.6741    44.3554 H            1 C6L301   0.0000
    17 H2          -1.3988   -20.9248    43.4994 H            1 C6L301   0.0000
    18 H3          -2.5727   -19.2553    44.6282 H            1 C6L301   0.0000
    19 H4          -1.1245   -19.3943    45.3697 H            1 C6L301   0.0000
    20 H5          -2.1292   -20.7823    47.0344 H            1 C6L301   0.0000
    21 H6          -3.5776   -20.5881    46.3056 H            1 C6L301   0.0000
    22 H7          -2.0534   -18.5538    47.6515 H            1 C6L301   0.0000
    23 H8          -3.5404   -19.0870    48.0651 H            1 C6L301   0.0000
    24 H9          -3.6985   -16.9871    46.9800 H            1 C6L301   0.0000
    25 H10         -2.9448   -17.6050    45.6697 H            1 C6L301   0.0000
    26 H11         -4.4319   -18.1382    46.0834 H            1 C6L301   0.0000
    27 H12         -1.6829   -23.6656    44.8089 H            1 C6L301   0.0000
    28 H13          0.7102   -23.5587    46.4614 H            1 C6L301   0.0000
    29 H14         -0.1710   -25.8373    47.0443 H            1 C6L301   0.0000
    30 H15         -1.5441   -25.3302    46.3202 H            1 C6L301   0.0000
    31 H16         -1.8686   -24.8428    48.5375 H            1 C6L301   0.0000
    32 H17         -1.4644   -23.4072    47.8724 H            1 C6L301   0.0000
    33 H18         -0.2924   -23.7639    49.8196 H            1 C6L301   0.0000
@<TRIPOS>BOND
     1    1    2       2
     2    2    3       1
     3    2    8      am
     4    3    4       1
     5    4    5       1
     6    5    6       1
     7    6    7       1
     8    8    9       1
     9    9   10       1
    10    9   13       1
    11   10   11      ar
    12   10   12      ar
    13   13   14       1
    14   14   15       1
    15    3   16       1
    16    3   17       1
    17    4   18       1
    18    4   19       1
    19    5   20       1
    20    5   21       1
    21    6   22       1
    22    6   23       1
    23    7   24       1
    24    7   25       1
    25    7   26       1
    26    8   27       1
    27    9   28       1
    28   15   33       1
    29   13   29       1
    30   13   30       1
    31   14   31       1
    32   14   32       1
@<TRIPOS>SUBSTRUCTURE
     1 C6L301      1 GROUP             4 B     C6L     0 **** C6L B 301
