@<TRIPOS>MOLECULE
3lcm_NAP_4_ligand
   15    15     1     0     0
SMALL
NO_CHARGES


@<TRIPOS>ATOM
     1 N1N         27.4230    14.4790    18.0370 N.ar         1 NAP198   0.0000
     2 C2N         28.5360    13.8900    18.5830 C.ar         1 NAP198   0.0000
     3 C3N         29.2210    12.8750    17.8380 C.ar         1 NAP198   0.0000
     4 C7N         30.4410    12.1540    18.3880 C.2          1 NAP198   0.0000
     5 O7N         30.9225    11.2293    17.8565 O.2          1 NAP198   0.0000
     6 N7N         30.9641    12.6589    19.6167 N.am         1 NAP198   0.0000
     7 C4N         28.7650    12.5620    16.5600 C.ar         1 NAP198   0.0000
     8 C5N         27.7210    13.2890    15.9380 C.ar         1 NAP198   0.0000
     9 C6N         26.9740    14.2040    16.6990 C.ar         1 NAP198   0.0000
    10 H2N         28.8640    14.1648    19.4868 H            1 NAP198   0.0000
    11 H7N1        31.7486    12.2124    20.0471 H            1 NAP198   0.0000
    12 H7N2        30.5460    13.4589    20.0469 H            1 NAP198   0.0000
    13 H4N         29.1873    11.8014    16.0669 H            1 NAP198   0.0000
    14 H5N         27.5177    13.1528    14.9684 H            1 NAP198   0.0000
    15 H6N         26.1601    14.6476    16.3239 H            1 NAP198   0.0000
@<TRIPOS>BOND
     1    1    2      ar
     2    1    9      ar
     3    2    3      ar
     4    3    4       1
     5    3    7      ar
     6    4    5       2
     7    4    6      am
     8    7    8      ar
     9    8    9      ar
    10    2   10       1
    11    6   11       1
    12    6   12       1
    13    7   13       1
    14    8   14       1
    15    9   15       1
@<TRIPOS>SUBSTRUCTURE
     1 NAP198      1 GROUP             4 B     NAP     0 **** NAP B 198
