@<TRIPOS>MOLECULE
3upy_FOM_1_ligand
   19    18     1     0     0
SMALL
NO_CHARGES


@<TRIPOS>ATOM
     1 O2           7.9580    -7.2540    15.1870 O.3          1 FOM447   0.0000
     2 N1           8.3210    -6.1040    15.5470 N.am         1 FOM447   0.0000
     3 C1           7.5940    -5.0220    15.4990 C.2          1 FOM447   0.0000
     4 O1           6.4040    -5.0880    15.1980 O.2          1 FOM447   0.0000
     5 C2           9.6420    -5.8950    16.0780 C.3          1 FOM447   0.0000
     6 C3           9.9880    -7.0140    17.0280 C.3          1 FOM447   0.0000
     7 C4          11.4560    -7.2750    16.8070 C.3          1 FOM447   0.0000
     8 PA1         11.7260    -8.7080    15.7570 P.3          1 FOM447   0.0000
     9 OP1         10.8560    -9.9440    16.1470 O.co2        1 FOM447   0.0000
    10 OP2         11.3410    -8.0950    14.3770 O.co2        1 FOM447  -1.0000
    11 OP3         13.2490    -8.8560    16.0540 O.co2        1 FOM447  -1.0000
    12 H1           8.1772    -7.3853    14.2202 H            1 FOM447   0.0000
    13 H2           8.0064    -4.1353    15.7079 H            1 FOM447   0.0000
    14 H3           9.6702    -5.0229    16.5666 H            1 FOM447   0.0000
    15 H4          10.3034    -5.8785    15.3281 H            1 FOM447   0.0000
    16 H5           9.4506    -7.8310    16.8190 H            1 FOM447   0.0000
    17 H6           9.8190    -6.7367    17.9738 H            1 FOM447   0.0000
    18 H7          11.8935    -7.4347    17.6919 H            1 FOM447   0.0000
    19 H8          11.8658    -6.4730    16.3724 H            1 FOM447   0.0000
@<TRIPOS>BOND
     1    1    2       1
     2    2    3      am
     3    2    5       1
     4    3    4       2
     5    5    6       1
     6    6    7       1
     7    7    8       1
     8    8    9      ar
     9    8   10      ar
    10    8   11      ar
    11    1   12       1
    12    3   13       1
    13    5   14       1
    14    5   15       1
    15    6   16       1
    16    6   17       1
    17    7   18       1
    18    7   19       1
@<TRIPOS>SUBSTRUCTURE
     1 FOM447      1 GROUP             4 A     FOM     0 **** FOM A 447
