@<TRIPOS>MOLECULE
3gy9_COA_1_ligand
   80    82     1     0     0
SMALL
NO_CHARGES


@<TRIPOS>ATOM
     1 N1A         22.1900    15.1260    -0.1670 N.ar         1 COA201   0.0000
     2 C2A         21.5730    16.3380     0.0810 C.ar         1 COA201   0.0000
     3 N3A         20.1970    16.4520     0.0370 N.ar         1 COA201   0.0000
     4 C4A         19.4490    15.3570    -0.2490 C.ar         1 COA201   0.0000
     5 C5A         20.0480    14.1260    -0.5040 C.ar         1 COA201   0.0000
     6 C6A         21.4340    14.0140    -0.4610 C.ar         1 COA201   0.0000
     7 N6A         22.0400    12.8850    -0.8030 N.pl3        1 COA201   0.0000
     8 N7A         19.0550    13.2380    -0.7600 N.2          1 COA201   0.0000
     9 C8A         17.8640    13.8690    -0.6730 C.2          1 COA201   0.0000
    10 N9A         18.1040    15.1860    -0.3660 N.pl3        1 COA201   0.0000
    11 C1B         17.1180    16.2600    -0.2120 C.3          1 COA201   0.0000
    12 C2B         16.0940    16.2580    -1.3370 C.3          1 COA201   0.0000
    13 O2B         15.7270    17.5890    -1.6440 O.3          1 COA201   0.0000
    14 C3B         14.9260    15.5130    -0.7450 C.3          1 COA201   0.0000
    15 O3B         13.6820    15.8720    -1.2930 O.3          1 COA201   0.0000
    16 P3B         12.9310    14.7870    -2.2120 P.3          1 COA201   0.0000
    17 O7A         11.6100    15.3490    -2.6820 O.co2        1 COA201   0.0000
    18 O8A         13.8420    14.4780    -3.3730 O.co2        1 COA201  -1.0000
    19 O9A         12.6830    13.5190    -1.4290 O.co2        1 COA201  -1.0000
    20 C4B         15.0140    15.9310     0.7060 C.3          1 COA201   0.0000
    21 O4B         16.3960    16.0480     0.9860 O.3          1 COA201   0.0000
    22 C5B         14.3270    14.9520     1.6610 C.3          1 COA201   0.0000
    23 O5B         14.8880    13.6730     1.5130 O.3          1 COA201   0.0000
    24 P1A         15.3820    12.7730     2.7690 P.3          1 COA201   0.0000
    25 O1A         14.4130    12.8320     3.9080 O.co2        1 COA201   0.0000
    26 O2A         15.6240    11.4180     2.1890 O.co2        1 COA201  -1.0000
    27 O3A         16.7660    13.5040     3.0850 O.3          1 COA201   0.0000
    28 P2A         18.0710    12.8950     3.7830 P.3          1 COA201   0.0000
    29 O4A         17.7540    11.7570     4.7370 O.co2        1 COA201   0.0000
    30 O5A         19.1030    12.6430     2.7460 O.co2        1 COA201  -1.0000
    31 O6A         18.4950    14.1620     4.6700 O.3          1 COA201   0.0000
    32 CBP         20.1610    15.9280     4.5830 C.3          1 COA201   0.0000
    33 CCP         18.8140    15.4150     4.0670 C.3          1 COA201   0.0000
    34 CDP         20.0430    16.2140     6.0770 C.3          1 COA201   0.0000
    35 CEP         20.4760    17.2390     3.8340 C.3          1 COA201   0.0000
    36 CAP         21.2500    14.8640     4.3410 C.3          1 COA201   0.0000
    37 OAP         21.2430    14.4890     2.9810 O.3          1 COA201   0.0000
    38 C9P         22.6110    15.3910     4.7020 C.2          1 COA201   0.0000
    39 O9P         23.0820    15.3550     6.0220 O.2          1 COA201   0.0000
    40 N8P         23.3030    15.8940     3.6850 N.am         1 COA201   0.0000
    41 C7P         24.6450    16.4380     3.8540 C.3          1 COA201   0.0000
    42 C6P         24.8790    17.6370     2.9330 C.3          1 COA201   0.0000
    43 C5P         24.8960    17.1980     1.4860 C.2          1 COA201   0.0000
    44 O5P         24.4300    16.0930     1.1590 O.2          1 COA201   0.0000
    45 N4P         25.4330    18.0480     0.6130 N.am         1 COA201   0.0000
    46 C3P         25.2560    17.8950    -0.8150 C.3          1 COA201   0.0000
    47 C2P         26.0210    16.6950    -1.3720 C.3          1 COA201   0.0000
    48 S1P         27.7950    16.6900    -1.0100 S.3          1 COA201   0.0000
    49 H2A         22.1290    17.1412     0.2947 H            1 COA201   0.0000
    50 H6A1        21.4986    12.0723    -1.0182 H            1 COA201   0.0000
    51 H6A2        23.0383    12.8464    -0.8456 H            1 COA201   0.0000
    52 H8A         16.9657    13.4509    -0.8083 H            1 COA201   0.0000
    53 H1B         17.5823    17.1450    -0.1768 H            1 COA201   0.0000
    54 H2B         16.4485    15.7873    -2.1450 H            1 COA201   0.0000
    55 H7          15.9503    17.7845    -2.5989 H            1 COA201   0.0000
    56 H3B         15.0679    14.5267    -0.8289 H            1 COA201   0.0000
    57 H4B         14.5886    16.8303     0.8074 H            1 COA201   0.0000
    58 H5B1        13.3502    14.9128     1.4506 H            1 COA201   0.0000
    59 H5B2        14.4529    15.2631     2.6030 H            1 COA201   0.0000
    60 HCP1        18.1008    16.0794     4.2906 H            1 COA201   0.0000
    61 HCP2        18.8633    15.3001     3.0748 H            1 COA201   0.0000
    62 HDP1        20.9193    16.5498     6.4223 H            1 COA201   0.0000
    63 HDP2        19.3374    16.9061     6.2292 H            1 COA201   0.0000
    64 HDP3        19.7949    15.3735     6.5587 H            1 COA201   0.0000
    65 HEP1        21.3532    17.6008     4.1498 H            1 COA201   0.0000
    66 HEP2        20.5241    17.0584     2.8516 H            1 COA201   0.0000
    67 HEP3        19.7550    17.9078     4.0150 H            1 COA201   0.0000
    68 HAP         21.0517    14.0604     4.9022 H            1 COA201   0.0000
    69 H21         20.6182    13.7192     2.8507 H            1 COA201   0.0000
    70 H8P         22.8898    15.8995     2.7744 H            1 COA201   0.0000
    71 H7P1        25.3142    15.7267     3.6391 H            1 COA201   0.0000
    72 H7P2        24.7613    16.7291     4.8036 H            1 COA201   0.0000
    73 H6P1        25.7568    18.0593     3.1591 H            1 COA201   0.0000
    74 H6P2        24.1447    18.3026     3.0663 H            1 COA201   0.0000
    75 H4P         25.9752    18.8156     0.9547 H            1 COA201   0.0000
    76 H3P1        25.5831    18.7234    -1.2697 H            1 COA201   0.0000
    77 H3P2        24.2822    17.7720    -1.0065 H            1 COA201   0.0000
    78 H2P1        25.9063    16.6869    -2.3654 H            1 COA201   0.0000
    79 H2P2        25.6220    15.8643    -0.9836 H            1 COA201   0.0000
    80 H1P         28.2144    15.8746    -1.4091 H            1 COA201   0.0000
@<TRIPOS>BOND
     1    1    2      ar
     2    1    6      ar
     3    2    3      ar
     4    3    4      ar
     5    4    5      ar
     6    4   10       1
     7    5    6      ar
     8    5    8       1
     9    6    7       1
    10    8    9       2
    11    9   10       1
    12   10   11       1
    13   11   12       1
    14   11   21       1
    15   12   13       1
    16   12   14       1
    17   14   15       1
    18   14   20       1
    19   15   16       1
    20   16   17      ar
    21   16   18      ar
    22   16   19      ar
    23   20   21       1
    24   20   22       1
    25   22   23       1
    26   23   24       1
    27   24   25      ar
    28   24   26      ar
    29   24   27       1
    30   27   28       1
    31   28   29      ar
    32   28   30      ar
    33   28   31       1
    34   31   33       1
    35   32   33       1
    36   32   34       1
    37   32   35       1
    38   32   36       1
    39   36   37       1
    40   36   38       1
    41   38   39       2
    42   38   40      am
    43   40   41       1
    44   41   42       1
    45   42   43       1
    46   43   44       2
    47   43   45      am
    48   45   46       1
    49   46   47       1
    50   47   48       1
    51    2   49       1
    52    7   50       1
    53    7   51       1
    54    9   52       1
    55   11   53       1
    56   12   54       1
    57   13   55       1
    58   14   56       1
    59   48   80       1
    60   47   79       1
    61   20   57       1
    62   22   58       1
    63   22   59       1
    64   47   78       1
    65   46   77       1
    66   33   60       1
    67   33   61       1
    68   34   62       1
    69   34   63       1
    70   34   64       1
    71   35   65       1
    72   35   66       1
    73   35   67       1
    74   36   68       1
    75   37   69       1
    76   40   70       1
    77   41   71       1
    78   41   72       1
    79   42   73       1
    80   42   74       1
    81   45   75       1
    82   46   76       1
@<TRIPOS>SUBSTRUCTURE
     1 COA201      1 GROUP             4 A     COA     0 **** COA A 201
