@<TRIPOS>MOLECULE
3klj_FAD_1_ligand
   84    89     1     0     0
SMALL
NO_CHARGES


@<TRIPOS>ATOM
     1 PA         -17.8350   -31.0100   -11.2230 P.3          1 FAD401   0.0000
     2 O1A        -17.5260   -32.4730   -11.3990 O.co2        1 FAD401   0.0000
     3 O2A        -19.2310   -30.7650   -10.7030 O.co2        1 FAD401  -1.0000
     4 O5B        -17.6250   -30.2490   -12.6100 O.3          1 FAD401   0.0000
     5 C5B        -16.4500   -30.4440   -13.3760 C.3          1 FAD401   0.0000
     6 C4B        -16.7990   -30.3780   -14.8630 C.3          1 FAD401   0.0000
     7 O4B        -15.6040   -30.4490   -15.6390 O.3          1 FAD401   0.0000
     8 C3B        -17.6640   -31.5640   -15.2810 C.3          1 FAD401   0.0000
     9 O3B        -18.8010   -31.0860   -15.9810 O.3          1 FAD401   0.0000
    10 C2B        -16.7760   -32.4050   -16.1790 C.3          1 FAD401   0.0000
    11 O2B        -17.4860   -32.9900   -17.2480 O.3          1 FAD401   0.0000
    12 C1B        -15.7730   -31.3820   -16.6930 C.3          1 FAD401   0.0000
    13 N9A        -14.4820   -31.9690   -17.0960 N.pl3        1 FAD401   0.0000
    14 C8A        -13.8330   -33.0330   -16.5290 C.2          1 FAD401   0.0000
    15 N7A        -12.6770   -33.2410   -17.2020 N.2          1 FAD401   0.0000
    16 C5A        -12.5720   -32.3240   -18.1850 C.ar         1 FAD401   0.0000
    17 C6A        -11.6000   -32.0970   -19.1600 C.ar         1 FAD401   0.0000
    18 N6A        -10.6710   -33.0220   -19.4070 N.pl3        1 FAD401   0.0000
    19 N1A        -11.7830   -31.0580   -20.0560 N.ar         1 FAD401   0.0000
    20 C2A        -12.9080   -30.2570   -19.9900 C.ar         1 FAD401   0.0000
    21 N3A        -13.8710   -30.4970   -19.0280 N.ar         1 FAD401   0.0000
    22 C4A        -13.7030   -31.5150   -18.1330 C.ar         1 FAD401   0.0000
    23 N1         -21.8300   -32.1590    -2.5120 N.2          1 FAD401   0.0000
    24 C2         -22.2820   -31.6320    -1.3210 C.2          1 FAD401   0.0000
    25 O2         -21.6150   -30.7890    -0.7460 O.2          1 FAD401   0.0000
    26 N3         -23.4920   -32.0240    -0.7860 N.pl3        1 FAD401   0.0000
    27 C4         -24.2550   -32.9650    -1.4360 C.2          1 FAD401   0.0000
    28 O4         -25.3250   -33.3050    -0.9230 O.2          1 FAD401   0.0000
    29 C4X        -23.8030   -33.5220    -2.6410 C.2          1 FAD401   0.0000
    30 N5         -24.5580   -34.4660    -3.3210 N.2          1 FAD401   0.0000
    31 C5X        -24.1070   -35.0050    -4.5110 C.ar         1 FAD401   0.0000
    32 C6         -24.8730   -35.9630    -5.1890 C.ar         1 FAD401   0.0000
    33 C7         -24.4060   -36.4920    -6.4030 C.ar         1 FAD401   0.0000
    34 C7M        -25.2210   -37.5190    -7.1330 C.3          1 FAD401   0.0000
    35 C8         -23.1810   -36.0760    -6.9250 C.ar         1 FAD401   0.0000
    36 C8M        -22.6520   -36.6330    -8.2230 C.3          1 FAD401   0.0000
    37 C9         -22.4250   -35.1300    -6.2430 C.ar         1 FAD401   0.0000
    38 C9A        -22.8850   -34.5880    -5.0390 C.ar         1 FAD401   0.0000
    39 N10        -22.1250   -33.6340    -4.3650 N.pl3        1 FAD401   0.0000
    40 C10        -22.5830   -33.1040    -3.1740 C.2          1 FAD401   0.0000
    41 C1'        -20.8050   -33.2020    -4.9130 C.3          1 FAD401   0.0000
    42 C2'        -20.8850   -31.8960    -5.6740 C.3          1 FAD401   0.0000
    43 O2'        -21.6890   -32.0960    -6.8190 O.3          1 FAD401   0.0000
    44 C3'        -19.4710   -31.5240    -6.0730 C.3          1 FAD401   0.0000
    45 O3'        -18.7160   -31.2230    -4.9140 O.3          1 FAD401   0.0000
    46 C4'        -19.4070   -30.3290    -7.0090 C.3          1 FAD401   0.0000
    47 O4'        -20.1850   -30.5670    -8.1750 O.3          1 FAD401   0.0000
    48 C5'        -17.9570   -30.1270    -7.4300 C.3          1 FAD401   0.0000
    49 O5'        -17.9470   -29.1490    -8.4380 O.3          1 FAD401   0.0000
    50 P          -16.7090   -29.0540    -9.4300 P.3          1 FAD401   0.0000
    51 O1P        -16.9310   -27.8820   -10.3720 O.co2        1 FAD401   0.0000
    52 O2P        -15.4040   -29.0040    -8.6740 O.co2        1 FAD401  -1.0000
    53 O3P        -16.6940   -30.4540   -10.2340 O.3          1 FAD401   0.0000
    54 H5B1       -16.0581   -31.3393   -13.1643 H            1 FAD401   0.0000
    55 H5B2       -15.7859   -29.7292   -13.1568 H            1 FAD401   0.0000
    56 H4B        -17.2794   -29.5233   -15.0598 H            1 FAD401   0.0000
    57 H3B        -17.9451   -32.0899   -14.4783 H            1 FAD401   0.0000
    58 H5         -19.5684   -31.7106   -15.8363 H            1 FAD401   0.0000
    59 H2B        -16.3099   -33.1101   -15.6445 H            1 FAD401   0.0000
    60 H7         -16.8763   -33.0990   -18.0331 H            1 FAD401   0.0000
    61 H1B        -16.1705   -30.9095   -17.4796 H            1 FAD401   0.0000
    62 H8A        -14.1584   -33.5669   -15.7486 H            1 FAD401   0.0000
    63 H6A1        -9.9752   -32.8576   -20.1061 H            1 FAD401   0.0000
    64 H6A2       -10.6705   -33.8798   -18.8930 H            1 FAD401   0.0000
    65 H2A        -13.0249   -29.5044   -20.6380 H            1 FAD401   0.0000
    66 H13        -23.8132   -31.6245     0.0726 H            1 FAD401   0.0000
    67 H14        -25.7469   -36.2680    -4.8105 H            1 FAD401   0.0000
    68 H7M1       -24.7466   -37.7863    -7.9717 H            1 FAD401   0.0000
    69 H7M2       -25.3452   -38.3219    -6.5500 H            1 FAD401   0.0000
    70 H7M3       -26.1142   -37.1332    -7.3638 H            1 FAD401   0.0000
    71 H8M1       -21.7672   -36.2151    -8.4291 H            1 FAD401   0.0000
    72 H8M2       -22.5417   -37.6235    -8.1403 H            1 FAD401   0.0000
    73 H8M3       -23.2964   -36.4297    -8.9602 H            1 FAD401   0.0000
    74 H21        -21.5455   -34.8348    -6.6162 H            1 FAD401   0.0000
    75 H1'1       -20.4679   -33.9120    -5.5313 H            1 FAD401   0.0000
    76 H1'2       -20.1647   -33.0903    -4.1531 H            1 FAD401   0.0000
    77 H2'        -21.2796   -31.1825    -5.0951 H            1 FAD401   0.0000
    78 H25        -21.3872   -31.4832    -7.5494 H            1 FAD401   0.0000
    79 H3'        -19.0526   -32.3088    -6.5302 H            1 FAD401   0.0000
    80 H27        -17.7559   -31.4533    -5.0725 H            1 FAD401   0.0000
    81 H4'        -19.7409   -29.5118    -6.5393 H            1 FAD401   0.0000
    82 H29        -19.5974   -30.5214    -8.9829 H            1 FAD401   0.0000
    83 H5'1       -17.5800   -30.9841    -7.7811 H            1 FAD401   0.0000
    84 H5'2       -17.4137   -29.8190    -6.6490 H            1 FAD401   0.0000
@<TRIPOS>BOND
     1    1    2      ar
     2    1    3      ar
     3    1    4       1
     4    1   53       1
     5    4    5       1
     6    5    6       1
     7    6    7       1
     8    6    8       1
     9    7   12       1
    10    8    9       1
    11    8   10       1
    12   10   11       1
    13   10   12       1
    14   12   13       1
    15   13   14       1
    16   13   22       1
    17   14   15       2
    18   15   16       1
    19   16   17      ar
    20   16   22      ar
    21   17   18       1
    22   17   19      ar
    23   19   20      ar
    24   20   21      ar
    25   21   22      ar
    26   23   24       1
    27   23   40       2
    28   24   25       2
    29   24   26       1
    30   26   27       1
    31   27   28       2
    32   27   29       1
    33   29   30       2
    34   29   40       1
    35   30   31       1
    36   31   32      ar
    37   31   38      ar
    38   32   33      ar
    39   33   34       1
    40   33   35      ar
    41   35   36       1
    42   35   37      ar
    43   37   38      ar
    44   38   39       1
    45   39   40       1
    46   39   41       1
    47   41   42       1
    48   42   43       1
    49   42   44       1
    50   44   45       1
    51   44   46       1
    52   46   47       1
    53   46   48       1
    54   48   49       1
    55   49   50       1
    56   50   51      ar
    57   50   52      ar
    58   50   53       1
    59   48   84       1
    60    5   54       1
    61    5   55       1
    62    6   56       1
    63    8   57       1
    64    9   58       1
    65   10   59       1
    66   11   60       1
    67   12   61       1
    68   14   62       1
    69   18   63       1
    70   18   64       1
    71   20   65       1
    72   26   66       1
    73   32   67       1
    74   34   68       1
    75   34   69       1
    76   34   70       1
    77   36   71       1
    78   36   72       1
    79   36   73       1
    80   37   74       1
    81   41   75       1
    82   41   76       1
    83   42   77       1
    84   43   78       1
    85   44   79       1
    86   45   80       1
    87   46   81       1
    88   47   82       1
    89   48   83       1
@<TRIPOS>SUBSTRUCTURE
     1 FAD401      1 GROUP             4 A     FAD     0 **** FAD A 401
