@<TRIPOS>MOLECULE
4cql_NAD_3_ligand
   70    74     1     0     0
SMALL
NO_CHARGES


@<TRIPOS>ATOM
     1 PA          39.5640   -25.0270    27.2650 P.3          1 NAD301   0.0000
     2 O1A         38.4800   -26.0680    27.1050 O.co2        1 NAD301   0.0000
     3 O2A         40.8300   -25.3750    28.0100 O.co2        1 NAD301  -1.0000
     4 O5B         38.8950   -23.7210    27.9300 O.3          1 NAD301   0.0000
     5 C5B         37.7060   -23.8510    28.7040 C.3          1 NAD301   0.0000
     6 C4B         37.6630   -22.7720    29.7760 C.3          1 NAD301   0.0000
     7 O4B         36.8350   -21.6750    29.3680 O.3          1 NAD301   0.0000
     8 C3B         37.0700   -23.3370    31.0560 C.3          1 NAD301   0.0000
     9 O3B         37.9920   -23.1700    32.1360 O.3          1 NAD301   0.0000
    10 C2B         35.8150   -22.5270    31.3060 C.3          1 NAD301   0.0000
    11 O2B         35.6920   -22.1980    32.6900 O.3          1 NAD301   0.0000
    12 C1B         35.9940   -21.2800    30.4570 C.3          1 NAD301   0.0000
    13 N9A         34.6670   -20.7930    29.9980 N.pl3        1 NAD301   0.0000
    14 C8A         33.8570   -21.4130    29.1200 C.2          1 NAD301   0.0000
    15 N7A         32.7120   -20.7090    28.9260 N.2          1 NAD301   0.0000
    16 C5A         32.7790   -19.6090    29.6980 C.ar         1 NAD301   0.0000
    17 C6A         31.9100   -18.4410    29.9740 C.ar         1 NAD301   0.0000
    18 N6A         30.7070   -18.3030    29.3670 N.pl3        1 NAD301   0.0000
    19 N1A         32.3570   -17.5160    30.8520 N.ar         1 NAD301   0.0000
    20 C2A         33.5500   -17.6380    31.4630 C.ar         1 NAD301   0.0000
    21 N3A         34.3880   -18.6710    31.2610 N.ar         1 NAD301   0.0000
    22 C4A         34.0660   -19.6730    30.4070 C.ar         1 NAD301   0.0000
    23 O3          39.9440   -24.4690    25.8040 O.3          1 NAD301   0.0000
    24 PN          41.2340   -23.5390    25.5580 P.3          1 NAD301   0.0000
    25 O1N         42.2010   -24.2920    24.6780 O.co2        1 NAD301   0.0000
    26 O2N         41.6910   -22.9600    26.8750 O.co2        1 NAD301  -1.0000
    27 O5D         40.5880   -22.3620    24.6730 O.3          1 NAD301   0.0000
    28 C5D         41.0670   -21.0220    24.7370 C.3          1 NAD301   0.0000
    29 C4D         40.3880   -20.2500    23.6170 C.3          1 NAD301   0.0000
    30 O4D         41.1160   -20.4360    22.4020 O.3          1 NAD301   0.0000
    31 C3D         38.9880   -20.7960    23.3950 C.3          1 NAD301   0.0000
    32 O3D         38.0450   -19.7220    23.4350 O.3          1 NAD301   0.0000
    33 C2D         39.0070   -21.4090    22.0110 C.3          1 NAD301   0.0000
    34 O2D         37.8240   -21.0570    21.2940 O.3          1 NAD301   0.0000
    35 C1D         40.2410   -20.8280    21.3430 C.3          1 NAD301   0.0000
    36 N1N         40.9010   -21.8240    20.4970 N.ar         1 NAD301   1.0000
    37 C2N         41.3130   -22.9790    21.0310 C.ar         1 NAD301   0.0000
    38 C3N         41.9430   -23.9340    20.2460 C.ar         1 NAD301   0.0000
    39 C7N         42.4030   -25.2310    20.8430 C.2          1 NAD301   0.0000
    40 O7N         42.7400   -26.1370    20.1000 O.2          1 NAD301   0.0000
    41 N7N         42.4280   -25.3620    22.1690 N.am         1 NAD301   0.0000
    42 C4N         42.1520   -23.6810    18.8980 C.ar         1 NAD301   0.0000
    43 C5N         41.7210   -22.4750    18.3670 C.ar         1 NAD301   0.0000
    44 C6N         41.0950   -21.5560    19.2000 C.ar         1 NAD301   0.0000
    45 H5B1        37.6909   -24.7512    29.1393 H            1 NAD301   0.0000
    46 H5B2        36.9098   -23.7562    28.1065 H            1 NAD301   0.0000
    47 H4B         38.5899   -22.4421    29.9548 H            1 NAD301   0.0000
    48 H3B         36.8431   -24.3037    30.9379 H            1 NAD301   0.0000
    49 H5          38.1836   -22.1968    32.2633 H            1 NAD301   0.0000
    50 H2B         35.0106   -23.0372    31.0015 H            1 NAD301   0.0000
    51 H7          36.4852   -21.6607    32.9767 H            1 NAD301   0.0000
    52 H1B         36.4479   -20.5685    30.9934 H            1 NAD301   0.0000
    53 H8A         34.0706   -22.2796    28.6690 H            1 NAD301   0.0000
    54 H6A1        30.1347   -17.5075    29.5663 H            1 NAD301   0.0000
    55 H6A2        30.3912   -18.9966    28.7195 H            1 NAD301   0.0000
    56 H2A         33.8289   -16.9214    32.1023 H            1 NAD301   0.0000
    57 H5D1        42.0590   -21.0061    24.6120 H            1 NAD301   0.0000
    58 H5D2        40.8359   -20.6171    25.6217 H            1 NAD301   0.0000
    59 H4D         40.3453   -19.2777    23.8466 H            1 NAD301   0.0000
    60 H3D         38.7655   -21.4864    24.0834 H            1 NAD301   0.0000
    61 H17         37.7254   -19.5938    24.3738 H            1 NAD301   0.0000
    62 H2D         39.0869   -22.4037    22.0761 H            1 NAD301   0.0000
    63 H19         37.8513   -21.4688    20.3831 H            1 NAD301   0.0000
    64 H1D         39.9887   -20.0297    20.7962 H            1 NAD301   0.0000
    65 H2N         41.1657   -23.1557    22.0042 H            1 NAD301   0.0000
    66 H7N1        42.7323   -26.2209    22.5809 H            1 NAD301   0.0000
    67 H7N2        42.1424   -24.6014    22.7520 H            1 NAD301   0.0000
    68 H4N         42.6063   -24.3577    18.3186 H            1 NAD301   0.0000
    69 H5N         41.8588   -22.2695    17.3981 H            1 NAD301   0.0000
    70 H6N         40.7851   -20.6822    18.8254 H            1 NAD301   0.0000
@<TRIPOS>BOND
     1    1    2      ar
     2    1    3      ar
     3    1    4       1
     4    1   23       1
     5    4    5       1
     6    5    6       1
     7    6    7       1
     8    6    8       1
     9    7   12       1
    10    8    9       1
    11    8   10       1
    12   10   11       1
    13   10   12       1
    14   12   13       1
    15   13   14       1
    16   13   22       1
    17   14   15       2
    18   15   16       1
    19   16   17      ar
    20   16   22      ar
    21   17   18       1
    22   17   19      ar
    23   19   20      ar
    24   20   21      ar
    25   21   22      ar
    26   23   24       1
    27   24   25      ar
    28   24   26      ar
    29   24   27       1
    30   27   28       1
    31   28   29       1
    32   29   30       1
    33   29   31       1
    34   30   35       1
    35   31   32       1
    36   31   33       1
    37   33   34       1
    38   33   35       1
    39   35   36       1
    40   36   37      ar
    41   36   44      ar
    42   37   38      ar
    43   38   39       1
    44   38   42      ar
    45   39   40       2
    46   39   41      am
    47   42   43      ar
    48   43   44      ar
    49   44   70       1
    50    5   45       1
    51    5   46       1
    52    6   47       1
    53    8   48       1
    54    9   49       1
    55   10   50       1
    56   11   51       1
    57   12   52       1
    58   14   53       1
    59   18   54       1
    60   18   55       1
    61   20   56       1
    62   43   69       1
    63   28   57       1
    64   28   58       1
    65   29   59       1
    66   31   60       1
    67   32   61       1
    68   33   62       1
    69   34   63       1
    70   35   64       1
    71   37   65       1
    72   41   66       1
    73   41   67       1
    74   42   68       1
@<TRIPOS>SUBSTRUCTURE
     1 NAD301      1 GROUP             4 E     NAD     0 **** NAD E 301
