@<TRIPOS>MOLECULE
3to3_ATP_1_ligand
   39    41     1     0     0
SMALL
NO_CHARGES


@<TRIPOS>ATOM
     1 PB           0.5910   -25.2560    36.4030 P.3          1 ATP617   0.0000
     2 O1B          2.0470   -24.8790    36.2950 O.co2        1 ATP617   0.0000
     3 O2B         -0.2060   -24.0640    36.8630 O.co2        1 ATP617  -1.0000
     4 O3B          0.4330   -26.4640    37.3980 O.co2        1 ATP617  -1.0000
     5 PA           0.0090   -24.8300    33.7820 P.3          1 ATP617   0.0000
     6 O1A          1.0890   -23.7750    33.9190 O.co2        1 ATP617   0.0000
     7 O2A         -1.3840   -24.2290    33.6320 O.co2        1 ATP617  -1.0000
     8 O3A          0.0280   -25.7540    35.0320 O.3          1 ATP617   0.0000
     9 O5'          0.3570   -25.6820    32.5090 O.3          1 ATP617   0.0000
    10 C5'          0.0030   -27.0120    32.4280 C.3          1 ATP617   0.0000
    11 C4'         -0.0020   -27.5960    31.1300 C.3          1 ATP617   0.0000
    12 O4'         -0.8260   -28.8110    31.1380 O.3          1 ATP617   0.0000
    13 C3'         -0.6290   -26.6820    30.1480 C.3          1 ATP617   0.0000
    14 O3'          0.2640   -26.3830    29.1460 O.3          1 ATP617   0.0000
    15 C2'         -1.7890   -27.4250    29.6240 C.3          1 ATP617   0.0000
    16 O2'         -1.9740   -27.1690    28.2960 O.3          1 ATP617   0.0000
    17 C1'         -1.3900   -28.8410    29.8620 C.3          1 ATP617   0.0000
    18 N9          -2.4450   -29.8130    29.7530 N.pl3        1 ATP617   0.0000
    19 C8          -2.3670   -30.9270    29.0040 C.2          1 ATP617   0.0000
    20 N7          -3.5200   -31.5960    29.1410 N.2          1 ATP617   0.0000
    21 C5          -4.3340   -30.9190    29.9820 C.ar         1 ATP617   0.0000
    22 C6          -5.6260   -31.1600    30.4710 C.ar         1 ATP617   0.0000
    23 N6          -6.3310   -32.3410    30.0560 N.pl3        1 ATP617   0.0000
    24 N1          -6.1840   -30.2700    31.3240 N.ar         1 ATP617   0.0000
    25 C2          -5.5070   -29.1650    31.7000 C.ar         1 ATP617   0.0000
    26 N3          -4.2610   -28.9040    31.2440 N.ar         1 ATP617   0.0000
    27 C4          -3.6480   -29.7610    30.3850 C.ar         1 ATP617   0.0000
    28 H5'1        -0.9189   -27.1033    32.8046 H            1 ATP617   0.0000
    29 H5'2         0.6460   -27.5312    32.9910 H            1 ATP617   0.0000
    30 H4'          0.9319   -27.8156    30.8480 H            1 ATP617   0.0000
    31 H3'         -0.9322   -25.8439    30.6014 H            1 ATP617   0.0000
    32 H5          -0.1091   -26.6806    28.2672 H            1 ATP617   0.0000
    33 H2'         -2.6136   -27.2004    30.1432 H            1 ATP617   0.0000
    34 H7          -2.8792   -26.7675    28.1569 H            1 ATP617   0.0000
    35 H1'         -0.6733   -29.0801    29.2069 H            1 ATP617   0.0000
    36 H9          -1.5870   -31.2066    28.4441 H            1 ATP617   0.0000
    37 H10         -7.2527   -32.5200    30.4002 H            1 ATP617   0.0000
    38 H11         -5.9001   -32.9840    29.4229 H            1 ATP617   0.0000
    39 H12         -5.9382   -28.5219    32.3328 H            1 ATP617   0.0000
@<TRIPOS>BOND
     1    1    2      ar
     2    1    3      ar
     3    1    4      ar
     4    1    8       1
     5    5    6      ar
     6    5    7      ar
     7    5    8       1
     8    5    9       1
     9    9   10       1
    10   10   11       1
    11   11   12       1
    12   11   13       1
    13   12   17       1
    14   13   14       1
    15   13   15       1
    16   15   16       1
    17   15   17       1
    18   17   18       1
    19   18   19       1
    20   18   27       1
    21   19   20       2
    22   20   21       1
    23   21   22      ar
    24   21   27      ar
    25   22   23       1
    26   22   24      ar
    27   24   25      ar
    28   25   26      ar
    29   26   27      ar
    30   25   39       1
    31   23   38       1
    32   23   37       1
    33   10   28       1
    34   10   29       1
    35   11   30       1
    36   13   31       1
    37   14   32       1
    38   15   33       1
    39   16   34       1
    40   17   35       1
    41   19   36       1
@<TRIPOS>SUBSTRUCTURE
     1 ATP617      1 GROUP             4 B     ATP     0 **** ATP B 617
