@<TRIPOS>MOLECULE
1m13_HYF_1_ligand
   91    92     1     0     0
SMALL
NO_CHARGES


@<TRIPOS>ATOM
     1 C1           9.5070    71.9840    -4.1800 C.2          1 HYF435   0.0000
     2 C2          13.6650    77.9120    -5.8650 C.3          1 HYF435   0.0000
     3 C3          15.1880    79.1870    -4.2550 C.3          1 HYF435   0.0000
     4 C4           5.0030    74.6870    -1.2500 C.3          1 HYF435   0.0000
     5 C5           6.2350    74.6680    -0.3330 C.3          1 HYF435   0.0000
     6 C6           5.8040    74.2810     1.0940 C.3          1 HYF435   0.0000
     7 C7           7.0020    76.0620    -0.3760 C.2          1 HYF435   0.0000
     8 O8           6.2840    77.0480    -0.1880 O.2          1 HYF435   0.0000
     9 C9          13.3150    77.8590    -3.3460 C.2          1 HYF435   0.0000
    10 C10         13.9980    78.2770    -4.4340 C.2          1 HYF435   0.0000
    11 C11         12.0810    76.9660    -3.2950 C.3          1 HYF435   0.0000
    12 C12          8.4820    77.4650    -3.1420 C.3          1 HYF435   0.0000
    13 C13         13.6170    80.8910    -0.1630 C.3          1 HYF435   0.0000
    14 C14         11.7280    82.6660    -0.4250 C.3          1 HYF435   0.0000
    15 C15         12.1300    81.2800     0.0420 C.2          1 HYF435   0.0000
    16 C16         11.1890    80.4850     0.6070 C.2          1 HYF435   0.0000
    17 C17         11.3950    79.0610     1.1560 C.3          1 HYF435   0.0000
    18 C18          9.2020    77.7360     0.0590 C.2          1 HYF435   0.0000
    19 O19          8.4850    78.7260     0.2600 O.2          1 HYF435   0.0000
    20 O20         11.4100    76.5640     2.5800 O.2          1 HYF435   0.0000
    21 O21          8.9400    73.7130    -0.4720 O.3          1 HYF435   0.0000
    22 C22         13.8920    73.3240    -0.3130 C.3          1 HYF435   0.0000
    23 C23         12.6770    71.1600    -1.0270 C.3          1 HYF435   0.0000
    24 C24         12.6530    72.4240    -0.1930 C.2          1 HYF435   0.0000
    25 C25         11.5570    72.6370     0.5940 C.2          1 HYF435   0.0000
    26 C26         11.1320    73.7480     1.5960 C.3          1 HYF435   0.0000
    27 C27          8.6440    76.2870    -0.6350 C.3          1 HYF435   0.0000
    28 C28          9.3820    74.9580    -0.0020 C.2          1 HYF435   0.0000
    29 C29         10.4180    74.9830     0.9740 C.2          1 HYF435   0.0000
    30 C30         10.9160    76.4320     1.4580 C.2          1 HYF435   0.0000
    31 C31         10.7900    77.7140     0.4640 C.3          1 HYF435   0.0000
    32 C32         11.6690    77.3300    -0.8830 C.3          1 HYF435   0.0000
    33 C33         10.9400    77.4360    -2.3010 C.3          1 HYF435   0.0000
    34 C34          9.3900    76.5270    -2.2530 C.3          1 HYF435   0.0000
    35 C35          9.6030    75.2470    -3.1780 C.3          1 HYF435   0.0000
    36 C36          8.4640    74.3130    -3.6750 C.3          1 HYF435   0.0000
    37 C37          9.0340    73.1930    -4.5490 C.2          1 HYF435   0.0000
    38 C38          9.5590    71.4920    -2.7470 C.3          1 HYF435   0.0000
    39 C39         10.0210    71.0400    -5.2370 C.3          1 HYF435   0.0000
    40 H1          12.8666    77.3100    -5.8783 H            1 HYF435   0.0000
    41 H2          13.4642    78.7435    -6.3830 H            1 HYF435   0.0000
    42 H3          14.4442    77.4414    -6.2789 H            1 HYF435   0.0000
    43 H4          15.3255    79.3683    -3.2812 H            1 HYF435   0.0000
    44 H5          16.0036    78.7469    -4.6305 H            1 HYF435   0.0000
    45 H6          15.0236    80.0490    -4.7346 H            1 HYF435   0.0000
    46 H7           5.2813    74.9382    -2.1771 H            1 HYF435   0.0000
    47 H8           4.5827    73.7797    -1.2624 H            1 HYF435   0.0000
    48 H9           4.3428    75.3555    -0.9075 H            1 HYF435   0.0000
    49 H10          6.8587    73.9622    -0.6689 H            1 HYF435   0.0000
    50 H11          6.6052    74.2682     1.6923 H            1 HYF435   0.0000
    51 H12          5.1435    74.9497     1.4356 H            1 HYF435   0.0000
    52 H13          5.3834    73.3738     1.0807 H            1 HYF435   0.0000
    53 H14         13.6627    78.1752    -2.4633 H            1 HYF435   0.0000
    54 H15         12.3740    76.0511    -3.0173 H            1 HYF435   0.0000
    55 H16         11.6911    76.9263    -4.2150 H            1 HYF435   0.0000
    56 H17          8.9083    77.5898    -4.0379 H            1 HYF435   0.0000
    57 H18          7.5815    77.0457    -3.2569 H            1 HYF435   0.0000
    58 H19          8.3814    78.3534    -2.6941 H            1 HYF435   0.0000
    59 H20         13.7690    79.9634     0.1782 H            1 HYF435   0.0000
    60 H21         13.8402    80.9286    -1.1371 H            1 HYF435   0.0000
    61 H22         14.2008    81.5301     0.3377 H            1 HYF435   0.0000
    62 H23         10.7547    82.8090    -0.2453 H            1 HYF435   0.0000
    63 H24         12.2624    83.3521     0.0686 H            1 HYF435   0.0000
    64 H25         11.9018    82.7506    -1.4061 H            1 HYF435   0.0000
    65 H26         10.2653    80.8621     0.6744 H            1 HYF435   0.0000
    66 H27         11.0282    79.0747     2.0862 H            1 HYF435   0.0000
    67 H28         12.3852    78.9255     1.1901 H            1 HYF435   0.0000
    68 H29          8.2124    73.6665    -1.1565 H            1 HYF435   0.0000
    69 H30         13.7788    74.1268     0.2724 H            1 HYF435   0.0000
    70 H31         14.7032    72.8143    -0.0265 H            1 HYF435   0.0000
    71 H32         14.0006    73.6168    -1.2630 H            1 HYF435   0.0000
    72 H33         11.8314    70.6471    -0.8793 H            1 HYF435   0.0000
    73 H34         12.7564    71.4004    -1.9944 H            1 HYF435   0.0000
    74 H35         13.4591    70.5979    -0.7579 H            1 HYF435   0.0000
    75 H36         10.8719    71.9139     0.5058 H            1 HYF435   0.0000
    76 H37         11.9551    74.0720     2.0623 H            1 HYF435   0.0000
    77 H38         10.5103    73.3380     2.2634 H            1 HYF435   0.0000
    78 H39         11.9804    76.3856    -0.7772 H            1 HYF435   0.0000
    79 H40         12.4602    77.9411    -0.9075 H            1 HYF435   0.0000
    80 H41         10.7378    78.3984    -2.4825 H            1 HYF435   0.0000
    81 H42         10.2339    74.6557    -2.6756 H            1 HYF435   0.0000
    82 H43         10.0511    75.5861    -4.0052 H            1 HYF435   0.0000
    83 H44          7.8096    74.8475    -4.2099 H            1 HYF435   0.0000
    84 H45          7.9998    73.9110    -2.8858 H            1 HYF435   0.0000
    85 H46          9.0595    73.3837    -5.5303 H            1 HYF435   0.0000
    86 H47          9.9477    70.5709    -2.7247 H            1 HYF435   0.0000
    87 H48         10.1295    72.1078    -2.2036 H            1 HYF435   0.0000
    88 H49          8.6340    71.4727    -2.3674 H            1 HYF435   0.0000
    89 H50         10.3333    70.1940    -4.8049 H            1 HYF435   0.0000
    90 H51          9.2873    70.8327    -5.8841 H            1 HYF435   0.0000
    91 H52         10.7834    71.4671    -5.7232 H            1 HYF435   0.0000
@<TRIPOS>BOND
     1    1   37       2
     2    1   38       1
     3    1   39       1
     4    2   10       1
     5    3   10       1
     6    4    5       1
     7    5    6       1
     8    5    7       1
     9    7    8       2
    10    7   27       1
    11    9   10       2
    12    9   11       1
    13   11   33       1
    14   12   34       1
    15   13   15       1
    16   14   15       1
    17   15   16       2
    18   16   17       1
    19   17   31       1
    20   18   19       2
    21   18   27       1
    22   18   31       1
    23   20   30       2
    24   21   28       1
    25   22   24       1
    26   23   24       1
    27   24   25       2
    28   25   26       1
    29   26   29       1
    30   27   28       1
    31   27   34       1
    32   28   29       2
    33   29   30       1
    34   30   31       1
    35   31   32       1
    36   32   33       1
    37   33   34       1
    38   34   35       1
    39   35   36       1
    40   36   37       1
    41    2   40       1
    42    2   41       1
    43    2   42       1
    44    3   43       1
    45    3   44       1
    46    3   45       1
    47    4   46       1
    48    4   47       1
    49    4   48       1
    50    5   49       1
    51    6   50       1
    52    6   51       1
    53    6   52       1
    54    9   53       1
    55   11   54       1
    56   11   55       1
    57   12   56       1
    58   12   57       1
    59   12   58       1
    60   13   59       1
    61   13   60       1
    62   13   61       1
    63   14   62       1
    64   14   63       1
    65   14   64       1
    66   16   65       1
    67   17   66       1
    68   17   67       1
    69   21   68       1
    70   22   69       1
    71   22   70       1
    72   22   71       1
    73   23   72       1
    74   23   73       1
    75   23   74       1
    76   25   75       1
    77   26   76       1
    78   26   77       1
    79   32   78       1
    80   32   79       1
    81   33   80       1
    82   35   81       1
    83   35   82       1
    84   36   83       1
    85   36   84       1
    86   37   85       1
    87   38   86       1
    88   38   87       1
    89   38   88       1
    90   39   89       1
    91   39   90       1
    92   39   91       1
@<TRIPOS>SUBSTRUCTURE
     1 HYF435      1 GROUP             4 A     HYF     0 **** HYF A 435
