@<TRIPOS>MOLECULE
3aos_JH2_1_ligand
   48    48     1     0     0
SMALL
NO_CHARGES


@<TRIPOS>ATOM
     1 C1          16.2760     0.8590     9.8180 C.2          1 JH2301   0.0000
     2 O1          16.6640     0.3900    11.1460 O.3          1 JH2301   0.0000
     3 C2          17.2630     0.7870     8.7150 C.2          1 JH2301   0.0000
     4 O2          15.1530     1.3250     9.6400 O.2          1 JH2301   0.0000
     5 C3          16.9640     0.9750     7.4130 C.2          1 JH2301   0.0000
     6 O3          13.9870    -5.0490     5.3580 O.3          1 JH2301   0.0000
     7 C4          18.0780     0.8850     6.3840 C.3          1 JH2301   0.0000
     8 C5          18.7510    -0.4930     6.3290 C.3          1 JH2301   0.0000
     9 C6          17.7500    -1.5900     6.0460 C.2          1 JH2301   0.0000
    10 C7          17.4900    -2.5680     6.9430 C.2          1 JH2301   0.0000
    11 C8          16.4710    -3.6500     6.6680 C.3          1 JH2301   0.0000
    12 C9          16.0270    -3.6970     5.2100 C.3          1 JH2301   0.0000
    13 C10         15.3600    -5.0480     4.9340 C.3          1 JH2301   0.0000
    14 C11         14.2090    -4.9560     3.9470 C.3          1 JH2301   0.0000
    15 C12         13.8900    -3.5950     3.3330 C.3          1 JH2301   0.0000
    16 C13         12.4090    -3.4130     3.1100 C.3          1 JH2301   0.0000
    17 C14         15.5510     1.2870     6.9500 C.3          1 JH2301   0.0000
    18 C15         18.1800    -2.6110     8.2770 C.3          1 JH2301   0.0000
    19 C16         14.0600    -6.2270     3.1110 C.3          1 JH2301   0.0000
    20 C17         15.6730     0.2850    12.1660 C.3          1 JH2301   0.0000
    21 H1          18.2136     0.5857     8.9514 H            1 JH2301   0.0000
    22 H2          18.7729     1.5678     6.6094 H            1 JH2301   0.0000
    23 H3          17.6935     1.0856     5.4829 H            1 JH2301   0.0000
    24 H4          19.1914    -0.6744     7.2083 H            1 JH2301   0.0000
    25 H5          19.4410    -0.4886     5.6052 H            1 JH2301   0.0000
    26 H6          17.2664    -1.5925     5.1707 H            1 JH2301   0.0000
    27 H7          15.6678    -3.4836     7.2400 H            1 JH2301   0.0000
    28 H8          16.8730    -4.5339     6.9069 H            1 JH2301   0.0000
    29 H9          16.8224    -3.5880     4.6138 H            1 JH2301   0.0000
    30 H10         15.3751    -2.9593     5.0343 H            1 JH2301   0.0000
    31 H11         15.8983    -5.8887     4.9922 H            1 JH2301   0.0000
    32 H12         14.3613    -3.5180     2.4544 H            1 JH2301   0.0000
    33 H13         14.2149    -2.8778     3.9495 H            1 JH2301   0.0000
    34 H14         12.2406    -2.5129     2.7081 H            1 JH2301   0.0000
    35 H15         12.0756    -4.1228     2.4895 H            1 JH2301   0.0000
    36 H16         11.9292    -3.4826     3.9846 H            1 JH2301   0.0000
    37 H17         15.5412     1.3896     5.9553 H            1 JH2301   0.0000
    38 H18         14.9411     0.5398     7.2141 H            1 JH2301   0.0000
    39 H19         15.2407     2.1369     7.3759 H            1 JH2301   0.0000
    40 H20         17.8561    -3.4031     8.7944 H            1 JH2301   0.0000
    41 H21         19.1678    -2.6841     8.1392 H            1 JH2301   0.0000
    42 H22         17.9753    -1.7745     8.7853 H            1 JH2301   0.0000
    43 H23         14.2421    -6.0174     2.1503 H            1 JH2301   0.0000
    44 H24         14.7113    -6.9149     3.4313 H            1 JH2301   0.0000
    45 H25         13.1291    -6.5802     3.2044 H            1 JH2301   0.0000
    46 H26         16.0961    -0.0477    13.0088 H            1 JH2301   0.0000
    47 H27         15.2663     1.1838    12.3294 H            1 JH2301   0.0000
    48 H28         14.9617    -0.3548    11.8750 H            1 JH2301   0.0000
@<TRIPOS>BOND
     1    1    2       1
     2    1    3       1
     3    1    4       2
     4    2   20       1
     5    3    5       2
     6    5    7       1
     7    5   17       1
     8    6   13       1
     9    6   14       1
    10    7    8       1
    11    8    9       1
    12    9   10       2
    13   10   11       1
    14   10   18       1
    15   11   12       1
    16   12   13       1
    17   13   14       1
    18   14   15       1
    19   14   19       1
    20   15   16       1
    21    3   21       1
    22    7   22       1
    23    7   23       1
    24    8   24       1
    25    8   25       1
    26    9   26       1
    27   11   27       1
    28   11   28       1
    29   12   29       1
    30   12   30       1
    31   13   31       1
    32   15   32       1
    33   15   33       1
    34   16   34       1
    35   16   35       1
    36   16   36       1
    37   17   37       1
    38   17   38       1
    39   17   39       1
    40   18   40       1
    41   18   41       1
    42   18   42       1
    43   19   43       1
    44   19   44       1
    45   19   45       1
    46   20   46       1
    47   20   47       1
    48   20   48       1
@<TRIPOS>SUBSTRUCTURE
     1 JH2301      1 GROUP             4 A     JH2     0 **** JH2 A 301
