@<TRIPOS>MOLECULE
4dkj_SAH_1_ligand
   46    48     1     0     0
SMALL
NO_CHARGES


@<TRIPOS>ATOM
     1 N           23.0060    26.2250    46.6360 N.4          1 SAH501   1.0000
     2 CA          23.0170    26.1920    45.1430 C.3          1 SAH501   0.0000
     3 CB          23.8600    25.0160    44.6010 C.3          1 SAH501   0.0000
     4 CG          25.2770    24.9360    45.1650 C.3          1 SAH501   0.0000
     5 SD          26.1300    23.5050    44.5640 S.3          1 SAH501   0.0000
     6 C           21.6080    26.1410    44.5390 C.2          1 SAH501   0.0000
     7 O           20.6370    26.7130    44.9410 O.co2        1 SAH501   0.0000
     8 OXT         21.3660    25.4970    43.5490 O.co2        1 SAH501  -1.0000
     9 C5'         27.8080    24.0780    44.5140 C.3          1 SAH501   0.0000
    10 C4'         28.0130    25.0420    43.3430 C.3          1 SAH501   0.0000
    11 O4'         29.2820    25.7140    43.3980 O.3          1 SAH501   0.0000
    12 C3'         27.9190    24.3920    41.9630 C.3          1 SAH501   0.0000
    13 O3'         26.7670    24.9520    41.2940 O.3          1 SAH501   0.0000
    14 C2'         29.2560    24.7560    41.3070 C.3          1 SAH501   0.0000
    15 O2'         29.1440    25.0260    39.9300 O.3          1 SAH501   0.0000
    16 C1'         29.7080    25.9990    42.0700 C.3          1 SAH501   0.0000
    17 N9          31.1680    26.2790    42.0190 N.pl3        1 SAH501   0.0000
    18 C8          32.1590    25.3820    42.1100 C.2          1 SAH501   0.0000
    19 N7          33.3690    25.9860    42.0320 N.2          1 SAH501   0.0000
    20 C5          33.1550    27.3010    41.8990 C.ar         1 SAH501   0.0000
    21 C6          34.0090    28.4950    41.7790 C.ar         1 SAH501   0.0000
    22 N6          35.3550    28.3750    41.7600 N.pl3        1 SAH501   0.0000
    23 N1          33.3930    29.6690    41.6580 N.ar         1 SAH501   0.0000
    24 C2          32.0490    29.7840    41.6430 C.ar         1 SAH501   0.0000
    25 N3          31.2170    28.7380    41.7300 N.ar         1 SAH501   0.0000
    26 C4          31.7060    27.4940    41.8810 C.ar         1 SAH501   0.0000
    27 H1          22.4523    26.9969    46.9483 H            1 SAH501   0.0000
    28 H2          22.6168    25.3727    46.9854 H            1 SAH501   0.0000
    29 HA          23.4469    27.0382    44.8283 H            1 SAH501   0.0000
    30 HB1         23.9246    25.1105    43.6076 H            1 SAH501   0.0000
    31 HB2         23.3868    24.1639    44.8247 H            1 SAH501   0.0000
    32 HG1         25.2282    24.8909    46.1628 H            1 SAH501   0.0000
    33 HG2         25.7825    25.7547    44.8927 H            1 SAH501   0.0000
    34 H5'1        28.4198    23.2944    44.4057 H            1 SAH501   0.0000
    35 H5'2        28.0197    24.5504    45.3696 H            1 SAH501   0.0000
    36 H4'         27.2989    25.7399    43.3976 H            1 SAH501   0.0000
    37 H3'         27.8280    23.3998    42.0477 H            1 SAH501   0.0000
    38 H12         26.8809    25.9416    41.2062 H            1 SAH501   0.0000
    39 H2'         29.9131    24.0162    41.4515 H            1 SAH501   0.0000
    40 H14         28.9634    26.0002    39.7950 H            1 SAH501   0.0000
    41 H1'         29.2083    26.7948    41.7279 H            1 SAH501   0.0000
    42 H16         32.0235    24.3974    42.2208 H            1 SAH501   0.0000
    43 H17         35.9285    29.1901    41.6783 H            1 SAH501   0.0000
    44 H18         35.7774    27.4711    41.8277 H            1 SAH501   0.0000
    45 H19         31.6529    30.6987    41.5627 H            1 SAH501   0.0000
    46 H20         23.9415    26.3275    46.9741 H            1 SAH501   0.0000
@<TRIPOS>BOND
     1    1    2       1
     2    2    3       1
     3    2    6       1
     4    3    4       1
     5    4    5       1
     6    5    9       1
     7    6    7      ar
     8    6    8      ar
     9    9   10       1
    10   10   11       1
    11   10   12       1
    12   11   16       1
    13   12   13       1
    14   12   14       1
    15   14   15       1
    16   14   16       1
    17   16   17       1
    18   17   18       1
    19   17   26       1
    20   18   19       2
    21   19   20       1
    22   20   21      ar
    23   20   26      ar
    24   21   22       1
    25   21   23      ar
    26   23   24      ar
    27   24   25      ar
    28   25   26      ar
    29    1   27       1
    30    1   28       1
    31    2   29       1
    32    3   30       1
    33    3   31       1
    34    4   32       1
    35    4   33       1
    36    1   46       1
    37    9   34       1
    38    9   35       1
    39   10   36       1
    40   12   37       1
    41   13   38       1
    42   14   39       1
    43   15   40       1
    44   16   41       1
    45   18   42       1
    46   22   43       1
    47   22   44       1
    48   24   45       1
@<TRIPOS>SUBSTRUCTURE
     1 SAH501      1 GROUP             4 A     SAH     0 **** SAH A 501
