@<TRIPOS>MOLECULE
3r55_PZA_1_ligand
   14    14     1     0     0
SMALL
NO_CHARGES


@<TRIPOS>ATOM
     1 C            7.3880     1.8720    26.2360 C.2          1 PZA597   0.0000
     2 N1           7.5309     0.5536    26.2831 N.am         1 PZA597   0.0000
     3 O            7.9636     2.5510    25.4030 O.2          1 PZA597   0.0000
     4 C1           5.1880     2.4230    29.1480 C.ar         1 PZA597   0.0000
     5 C2           4.8750     3.7560    28.9940 C.ar         1 PZA597   0.0000
     6 N2           5.3670     4.4520    27.9720 N.ar         1 PZA597   0.0000
     7 C3           6.1760     3.8950    27.0790 C.ar         1 PZA597   0.0000
     8 C4           6.4960     2.5570    27.2200 C.ar         1 PZA597   0.0000
     9 N3           5.9920     1.8500    28.2510 N.ar         1 PZA597   0.0000
    10 H1           7.0459     0.0226    26.9780 H            1 PZA597   0.0000
    11 H2           8.1236     0.0910    25.6238 H            1 PZA597   0.0000
    12 H3           4.8207     1.8969    29.9150 H            1 PZA597   0.0000
    13 H4           4.2734     4.2039    29.6554 H            1 PZA597   0.0000
    14 H5           6.5461     4.4314    26.3206 H            1 PZA597   0.0000
@<TRIPOS>BOND
     1    1    2      am
     2    1    3       2
     3    1    8       1
     4    4    5      ar
     5    4    9      ar
     6    5    6      ar
     7    6    7      ar
     8    7    8      ar
     9    8    9      ar
    10    2   10       1
    11    2   11       1
    12    4   12       1
    13    5   13       1
    14    7   14       1
@<TRIPOS>SUBSTRUCTURE
     1 PZA597      1 GROUP             4 A     PZA     0 **** PZA A 597
