@<TRIPOS>MOLECULE
2x97_RX4_1_ligand
   63    63     1     0     0
SMALL
NO_CHARGES


@<TRIPOS>ATOM
     1 CAP         28.1710     3.2650    44.7320 C.ar         1 RX41615   0.0000
     2 CAN         28.0420     4.6420    44.6150 C.ar         1 RX41615   0.0000
     3 CAM         27.3230     5.0650    43.4740 C.ar         1 RX41615   0.0000
     4 CAO         26.7730     4.1780    42.5190 C.ar         1 RX41615   0.0000
     5 CAQ         26.9370     2.7910    42.6680 C.ar         1 RX41615   0.0000
     6 CBC         27.6600     2.3520    43.7750 C.ar         1 RX41615   0.0000
     7 CAS         27.8500     0.8490    44.1030 C.3          1 RX41615   0.0000
     8 CBG         26.5070     0.3890    44.7880 C.3          1 RX41615   0.0000
     9 NAW         26.2730     1.1280    46.0250 N.am         1 RX41615   0.0000
    10 CBB         25.1810     1.8950    46.0910 C.2          1 RX41615   0.0000
    11 OAI         24.3460     1.9450    45.1700 O.2          1 RX41615   0.0000
    12 CBF         25.0390     2.9090    47.2380 C.3          1 RX41615   0.0000
    13 CAR         24.4600     2.2840    48.4670 C.3          1 RX41615   0.0000
    14 CAZ         24.8140     3.2310    49.6380 C.2          1 RX41615   0.0000
    15 OAK         26.0220     3.3730    49.9820 O.co2        1 RX41615   0.0000
    16 OAG         23.8730     3.8480    50.1300 O.co2        1 RX41615  -1.0000
    17 NAU         24.1720     3.9980    46.6650 N.am         1 RX41615   0.0000
    18 CAX         24.6000     5.2640    46.5060 C.2          1 RX41615   0.0000
    19 CAA         23.5820     6.2410    45.8480 C.3          1 RX41615   0.0000
    20 OAE         25.7340     5.6680    46.8590 O.2          1 RX41615   0.0000
    21 P1          26.5190    -1.3530    45.2660 P.3          1 RX41615   0.0000
    22 O4          25.1720    -1.7630    45.8360 O.co2        1 RX41615   0.0000
    23 O3          27.4350    -1.6580    46.4300 O.co2        1 RX41615  -1.0000
    24 CAT         26.9060    -2.3000    43.8010 C.3          1 RX41615   0.0000
    25 CBD         27.3550    -3.7500    44.0110 C.3          1 RX41615   0.0000
    26 CAB         27.0550    -4.6990    42.7460 C.3          1 RX41615   0.0000
    27 CBA         28.9300    -3.7150    44.0870 C.2          1 RX41615   0.0000
    28 OAH         29.5620    -2.7930    43.5480 O.2          1 RX41615   0.0000
    29 N           29.5320    -4.7480    44.6610 N.am         1 RX41615   0.0000
    30 CA          31.0420    -4.7760    44.6880 C.3          1 RX41615   0.0000
    31 CB          31.5230    -5.9830    45.5060 C.3          1 RX41615   0.0000
    32 C           31.4750    -4.9500    43.1920 C.2          1 RX41615   0.0000
    33 O           32.6339    -4.5567    42.8271 O.2          1 RX41615   0.0000
    34 NAD         30.5993    -5.4689    42.3494 N.am         1 RX41615   0.0000
    35 HAP         28.6480     2.8986    45.5309 H            1 RX41615   0.0000
    36 HAN         28.4255     5.2810    45.2818 H            1 RX41615   0.0000
    37 HAM         27.1959     6.0469    43.3339 H            1 RX41615   0.0000
    38 HAO         26.2664     4.5393    41.7362 H            1 RX41615   0.0000
    39 HAQ         26.5514     2.1464    42.0079 H            1 RX41615   0.0000
    40 HAS1        28.6209     0.7231    44.7274 H            1 RX41615   0.0000
    41 HAS2        28.0108     0.3269    43.2654 H            1 RX41615   0.0000
    42 HBG         25.7460     0.5515    44.1599 H            1 RX41615   0.0000
    43 HAW         26.9073     1.0625    46.7953 H            1 RX41615   0.0000
    44 HBF         25.9391     3.2866    47.4551 H            1 RX41615   0.0000
    45 HAR1        24.8605     1.3803    48.6183 H            1 RX41615   0.0000
    46 HAR2        23.4677     2.1981    48.3780 H            1 RX41615   0.0000
    47 HAU         23.2376     3.7709    46.3906 H            1 RX41615   0.0000
    48 HAA1        23.9921     7.1501    45.7746 H            1 RX41615   0.0000
    49 HAA2        23.3429     5.9086    44.9357 H            1 RX41615   0.0000
    50 HAA3        22.7571     6.2919    46.4110 H            1 RX41615   0.0000
    51 HAT1        27.6407    -1.8232    43.3184 H            1 RX41615   0.0000
    52 HAT2        26.0870    -2.3175    43.2275 H            1 RX41615   0.0000
    53 HBD         26.9624    -4.1309    44.8481 H            1 RX41615   0.0000
    54 HAB1        27.3693    -5.6275    42.9438 H            1 RX41615   0.0000
    55 HAB2        26.0717    -4.7116    42.5645 H            1 RX41615   0.0000
    56 HAB3        27.5376    -4.3475    41.9438 H            1 RX41615   0.0000
    57 H23         28.9989    -5.4907    45.0663 H            1 RX41615   0.0000
    58 HA          31.4056    -3.9244    45.0655 H            1 RX41615   0.0000
    59 HB1         32.5228    -5.9981    45.5215 H            1 RX41615   0.0000
    60 HB2         31.1761    -5.9115    46.4412 H            1 RX41615   0.0000
    61 HB3         31.1834    -6.8256    45.0881 H            1 RX41615   0.0000
    62 HAD1        30.8223    -5.5398    41.3772 H            1 RX41615   0.0000
    63 HAD2        29.7136    -5.7907    42.6839 H            1 RX41615   0.0000
@<TRIPOS>BOND
     1    1    2      ar
     2    1    6      ar
     3    2    3      ar
     4    3    4      ar
     5    4    5      ar
     6    5    6      ar
     7    6    7       1
     8    7    8       1
     9    8    9       1
    10    8   21       1
    11    9   10      am
    12   10   11       2
    13   10   12       1
    14   12   13       1
    15   12   17       1
    16   13   14       1
    17   14   15      ar
    18   14   16      ar
    19   17   18      am
    20   18   19       1
    21   18   20       2
    22   21   22      ar
    23   21   23      ar
    24   21   24       1
    25   24   25       1
    26   25   26       1
    27   25   27       1
    28   27   28       2
    29   27   29      am
    30   29   30       1
    31   30   31       1
    32   30   32       1
    33   32   33       2
    34   32   34      am
    35    1   35       1
    36    2   36       1
    37    3   37       1
    38    4   38       1
    39    5   39       1
    40    7   40       1
    41    7   41       1
    42    8   42       1
    43    9   43       1
    44   12   44       1
    45   13   45       1
    46   13   46       1
    47   34   63       1
    48   17   47       1
    49   19   48       1
    50   19   49       1
    51   19   50       1
    52   34   62       1
    53   24   51       1
    54   24   52       1
    55   25   53       1
    56   26   54       1
    57   26   55       1
    58   26   56       1
    59   29   57       1
    60   30   58       1
    61   31   59       1
    62   31   60       1
    63   31   61       1
@<TRIPOS>SUBSTRUCTURE
     1 RX41615     1 GROUP             4 A     RX4     0 **** RX4 A1615
