@<TRIPOS>MOLECULE
1nq1_4HY_1_ligand
   29    30     1     0     0
SMALL
NO_CHARGES


@<TRIPOS>ATOM
     1 C1          47.2910     5.0660    16.6060 C.ar         1 4HY500   0.0000
     2 C2          51.0980     6.5190    13.5350 C.ar         1 4HY500   0.0000
     3 C3          47.3180     4.6280    15.2190 C.ar         1 4HY500   0.0000
     4 C4          52.0220     6.3700    12.5530 C.ar         1 4HY500   0.0000
     5 C5          48.5340     4.6960    14.4960 C.ar         1 4HY500   0.0000
     6 C6          52.3370     7.4020    11.7040 C.ar         1 4HY500   0.0000
     7 C7          49.6980     5.1770    15.0860 C.ar         1 4HY500   0.0000
     8 C8          51.6780     8.6680    11.8230 C.ar         1 4HY500   0.0000
     9 C9          49.6490     5.5840    16.4640 C.ar         1 4HY500   0.0000
    10 C10         50.7090     8.8500    12.8400 C.ar         1 4HY500   0.0000
    11 C11         48.4150     5.5160    17.2040 C.ar         1 4HY500   0.0000
    12 C12         50.4100     7.7660    13.6990 C.ar         1 4HY500   0.0000
    13 C13         46.0110     5.0690    17.3670 C.3          1 4HY500   0.0000
    14 C14         45.5040     3.6680    17.8470 C.2          1 4HY500   0.0000
    15 I1          48.6710     3.9800    12.4960 I            1 4HY500   0.0000
    16 I2          53.7670     7.0990    10.2710 I            1 4HY500   0.0000
    17 I3          51.4180     6.2120    17.4350 I            1 4HY500   0.0000
    18 O3          44.2610     3.5000    17.8460 O.co2        1 4HY500   0.0000
    19 O2          50.8800     5.3810    14.3400 O.3          1 4HY500   0.0000
    20 O1          52.0170     9.7060    10.9300 O.3          1 4HY500   0.0000
    21 O4          46.3750     2.8280    18.1960 O.co2        1 4HY500  -1.0000
    22 H1          46.4878     4.2830    14.7812 H            1 4HY500   0.0000
    23 H2          52.4837     5.4895    12.4452 H            1 4HY500   0.0000
    24 H3          50.2445     9.7288    12.9490 H            1 4HY500   0.0000
    25 H4          48.3907     5.8024    18.1618 H            1 4HY500   0.0000
    26 H5          49.7219     7.8693    14.4172 H            1 4HY500   0.0000
    27 H6          45.3056     5.4666    16.7803 H            1 4HY500   0.0000
    28 H7          46.1354     5.6443    18.1754 H            1 4HY500   0.0000
    29 H8          52.7096     9.5529    10.2251 H            1 4HY500   0.0000
@<TRIPOS>BOND
     1    1    3      ar
     2    1   11      ar
     3    1   13       1
     4    2    4      ar
     5    2   12      ar
     6    2   19       1
     7    3    5      ar
     8    4    6      ar
     9    5    7      ar
    10    5   15       1
    11    6    8      ar
    12    6   16       1
    13    7    9      ar
    14    7   19       1
    15    8   10      ar
    16    8   20       1
    17    9   11      ar
    18    9   17       1
    19   10   12      ar
    20   13   14       1
    21   14   18      ar
    22   14   21      ar
    23    3   22       1
    24    4   23       1
    25   10   24       1
    26   11   25       1
    27   12   26       1
    28   13   27       1
    29   13   28       1
    30   20   29       1
@<TRIPOS>SUBSTRUCTURE
     1 4HY500      1 GROUP             4 A     4HY     0 **** 4HY A 500
