@<TRIPOS>MOLECULE
3hkv_3AB_1_ligand
   18    18     1     0     0
SMALL
NO_CHARGES


@<TRIPOS>ATOM
     1 N3          37.8310    40.5530    25.2810 N.pl3        1 3AB1025   0.0000
     2 C3          37.0640    41.5280    24.8130 C.ar         1 3AB1025   0.0000
     3 C2          36.1410    41.2650    23.8120 C.ar         1 3AB1025   0.0000
     4 C4          37.1910    42.7890    25.3610 C.ar         1 3AB1025   0.0000
     5 C5          36.3770    43.7980    24.9050 C.ar         1 3AB1025   0.0000
     6 C6          35.4650    43.5470    23.8860 C.ar         1 3AB1025   0.0000
     7 C1          35.3360    42.2950    23.3410 C.ar         1 3AB1025   0.0000
     8 C1'         34.3510    42.1010    22.2010 C.2          1 3AB1025   0.0000
     9 O1'         34.0420    43.0700    21.5340 O.2          1 3AB1025   0.0000
    10 N1'         33.9680    40.8700    21.9170 N.am         1 3AB1025   0.0000
    11 H1          38.4965    40.7430    26.0028 H            1 3AB1025   0.0000
    12 H2          37.7440    39.6276    24.9121 H            1 3AB1025   0.0000
    13 H3          36.0556    40.3435    23.4330 H            1 3AB1025   0.0000
    14 H4          37.8648    42.9653    26.0785 H            1 3AB1025   0.0000
    15 H5          36.4406    44.7120    25.3058 H            1 3AB1025   0.0000
    16 H6          34.8929    44.2926    23.5444 H            1 3AB1025   0.0000
    17 H1'1        33.3205    40.7070    21.1725 H            1 3AB1025   0.0000
    18 H1'2        34.3253    40.1005    22.4463 H            1 3AB1025   0.0000
@<TRIPOS>BOND
     1    1    2       1
     2    2    3      ar
     3    2    4      ar
     4    3    7      ar
     5    4    5      ar
     6    5    6      ar
     7    6    7      ar
     8    7    8       1
     9    8    9       2
    10    8   10      am
    11    1   11       1
    12    1   12       1
    13    3   13       1
    14    4   14       1
    15    5   15       1
    16    6   16       1
    17   10   17       1
    18   10   18       1
@<TRIPOS>SUBSTRUCTURE
     1 3AB1025     1 GROUP             4 A     3AB     0 **** 3AB A1025
