@<TRIPOS>MOLECULE
4ht2_V50_2_ligand
   31    32     1     0     0
SMALL
NO_CHARGES


@<TRIPOS>ATOM
     1 F13         23.4590    21.2230    37.8450 F            1 V50302   0.0000
     2 C4          23.3270    22.4840    37.3110 C.ar         1 V50302   0.0000
     3 C5          23.3570    22.6590    35.8950 C.ar         1 V50302   0.0000
     4 S7          23.3800    21.1460    34.8320 S.o2         1 V50302   0.0000
     5 O9          23.2250    21.6490    33.4520 O.2          1 V50302   0.0000
     6 N23         24.7950    20.5420    35.1080 N.3          1 V50302  -1.0000
     7 O8          22.3170    20.2880    35.3650 O.2          1 V50302   0.0000
     8 C6          23.2990    24.0400    35.5740 C.ar         1 V50302   0.0000
     9 F11         23.3030    24.3250    34.2990 F            1 V50302   0.0000
    10 C1          23.1610    25.0800    36.4560 C.ar         1 V50302   0.0000
    11 F10         23.1260    26.3620    35.9950 F            1 V50302   0.0000
    12 C3          23.1680    23.5090    38.2550 C.ar         1 V50302   0.0000
    13 F12         23.0350    23.2180    39.5870 F            1 V50302   0.0000
    14 C2          23.0930    24.8410    37.8230 C.ar         1 V50302   0.0000
    15 S14         22.9950    26.1290    39.0720 S.3          1 V50302   0.0000
    16 C15         21.6320    27.0930    38.5430 C.ar         1 V50302   0.0000
    17 N20         20.8980    26.7540    37.5070 N.ar         1 V50302   0.0000
    18 C19         19.8900    27.6280    37.1920 C.ar         1 V50302   0.0000
    19 C21         19.1290    27.2210    35.9470 C.3          1 V50302   0.0000
    20 C18         19.6190    28.8050    37.8740 C.ar         1 V50302   0.0000
    21 C17         20.4670    28.9950    38.9330 C.ar         1 V50302   0.0000
    22 N16         21.4530    28.1750    39.3070 N.ar         1 V50302   0.0000
    23 C22         20.2550    30.2450    39.8370 C.3          1 V50302   0.0000
    24 H1          24.6965    19.6215    35.4862 H            1 V50302   0.0000
    25 H2          18.4085    27.8896    35.7633 H            1 V50302   0.0000
    26 H3          19.7567    27.1853    35.1694 H            1 V50302   0.0000
    27 H4          18.7194    26.3194    36.0865 H            1 V50302   0.0000
    28 H5          18.8895    29.4409    37.6220 H            1 V50302   0.0000
    29 H6          20.9426    30.2518    40.5630 H            1 V50302   0.0000
    30 H7          20.3445    31.0743    39.2854 H            1 V50302   0.0000
    31 H8          19.3418    30.2117    40.2431 H            1 V50302   0.0000
@<TRIPOS>BOND
     1    1    2       1
     2    2    3      ar
     3    2   12      ar
     4    3    4       1
     5    3    8      ar
     6    4    5       2
     7    4    6       1
     8    4    7       2
     9    8    9       1
    10    8   10      ar
    11   10   11       1
    12   10   14      ar
    13   12   13       1
    14   12   14      ar
    15   14   15       1
    16   15   16       1
    17   16   17      ar
    18   16   22      ar
    19   17   18      ar
    20   18   19       1
    21   18   20      ar
    22   20   21      ar
    23   21   22      ar
    24   21   23       1
    25   23   31       1
    26    6   24       1
    27   19   25       1
    28   19   26       1
    29   19   27       1
    30   20   28       1
    31   23   29       1
    32   23   30       1
@<TRIPOS>SUBSTRUCTURE
     1 V50302      1 GROUP             4 C     V50     0 **** V50 C 302
