@<TRIPOS>MOLECULE
4dlb_NAD_1_ligand
   70    74     1     0     0
SMALL
NO_CHARGES


@<TRIPOS>ATOM
     1 PA         -28.5070    25.8370   -43.7000 P.3          1 NAD403   0.0000
     2 O1A        -28.5010    27.2670   -44.0920 O.co2        1 NAD403   0.0000
     3 O2A        -29.6380    25.0200   -44.3220 O.co2        1 NAD403  -1.0000
     4 O5B        -28.6060    25.7240   -42.1230 O.3          1 NAD403   0.0000
     5 C5B        -27.9260    26.6030   -41.2000 C.3          1 NAD403   0.0000
     6 C4B        -28.8150    26.7440   -39.9900 C.3          1 NAD403   0.0000
     7 O4B        -28.1110    27.4470   -38.9480 O.3          1 NAD403   0.0000
     8 C3B        -30.1380    27.4850   -40.2060 C.3          1 NAD403   0.0000
     9 O3B        -31.2240    26.6280   -39.8920 O.3          1 NAD403   0.0000
    10 C2B        -30.0450    28.6980   -39.2710 C.3          1 NAD403   0.0000
    11 O2B        -31.3020    29.0310   -38.6930 O.3          1 NAD403   0.0000
    12 C1B        -29.0490    28.2070   -38.2290 C.3          1 NAD403   0.0000
    13 N9A        -28.3260    29.2390   -37.4920 N.pl3        1 NAD403   0.0000
    14 C8A        -27.7350    30.3720   -37.9880 C.2          1 NAD403   0.0000
    15 N7A        -27.0990    31.0810   -37.0860 N.2          1 NAD403   0.0000
    16 C5A        -27.2920    30.3690   -35.9110 C.ar         1 NAD403   0.0000
    17 C6A        -26.8590    30.5860   -34.5850 C.ar         1 NAD403   0.0000
    18 N6A        -26.2000    31.6760   -34.1880 N.pl3        1 NAD403   0.0000
    19 N1A        -27.1700    29.6480   -33.6610 N.ar         1 NAD403   0.0000
    20 C2A        -27.8810    28.5800   -34.0410 C.ar         1 NAD403   0.0000
    21 N3A        -28.3670    28.2820   -35.2510 N.ar         1 NAD403   0.0000
    22 C4A        -28.0370    29.2260   -36.1490 C.ar         1 NAD403   0.0000
    23 O3         -27.1460    25.1240   -44.1570 O.3          1 NAD403   0.0000
    24 PN         -26.6710    23.6440   -44.5600 P.3          1 NAD403   0.0000
    25 O1N        -26.9110    23.4280   -46.0060 O.co2        1 NAD403   0.0000
    26 O2N        -27.2090    22.6710   -43.5810 O.co2        1 NAD403  -1.0000
    27 O5D        -25.0970    23.7650   -44.2940 O.3          1 NAD403   0.0000
    28 C5D        -24.6050    24.3820   -43.0820 C.3          1 NAD403   0.0000
    29 C4D        -23.1150    24.5950   -43.1570 C.3          1 NAD403   0.0000
    30 O4D        -22.4590    23.3650   -43.5340 O.3          1 NAD403   0.0000
    31 C3D        -22.6190    25.6360   -44.1580 C.3          1 NAD403   0.0000
    32 O3D        -21.6170    26.4670   -43.5760 O.3          1 NAD403   0.0000
    33 C2D        -22.0170    24.7610   -45.2540 C.3          1 NAD403   0.0000
    34 O2D        -20.9260    25.4050   -45.8990 O.3          1 NAD403   0.0000
    35 C1D        -21.3930    23.6620   -44.3630 C.3          1 NAD403   0.0000
    36 N1N        -20.9620    22.4270   -45.1600 N.ar         1 NAD403   1.0000
    37 C2N        -19.6780    21.9590   -44.8490 C.ar         1 NAD403   0.0000
    38 C3N        -19.1760    20.8280   -45.4710 C.ar         1 NAD403   0.0000
    39 C7N        -17.8920    20.1830   -44.9910 C.2          1 NAD403   0.0000
    40 O7N        -17.3480    19.3140   -45.6890 O.2          1 NAD403   0.0000
    41 N7N        -17.3440    20.6330   -43.8380 N.am         1 NAD403   0.0000
    42 C4N        -19.9690    20.1850   -46.4200 C.ar         1 NAD403   0.0000
    43 C5N        -21.2530    20.6430   -46.6900 C.ar         1 NAD403   0.0000
    44 C6N        -21.7290    21.7770   -46.0560 C.ar         1 NAD403   0.0000
    45 H5B1       -27.7774    27.4968   -41.6231 H            1 NAD403   0.0000
    46 H5B2       -27.0458    26.2089   -40.9355 H            1 NAD403   0.0000
    47 H4B        -29.0268    25.8262   -39.6542 H            1 NAD403   0.0000
    48 H3B        -30.2074    27.7903   -41.1557 H            1 NAD403   0.0000
    49 H5         -31.4573    26.7263   -38.9246 H            1 NAD403   0.0000
    50 H2B        -29.6714    29.4849   -39.7622 H            1 NAD403   0.0000
    51 H7         -31.4146    28.5355   -37.8317 H            1 NAD403   0.0000
    52 H1B        -29.5223    27.6123   -37.5792 H            1 NAD403   0.0000
    53 H8A        -27.7843    30.6347   -38.9516 H            1 NAD403   0.0000
    54 H6A1       -25.9199    31.7707   -33.2327 H            1 NAD403   0.0000
    55 H6A2       -25.9862    32.3983   -34.8457 H            1 NAD403   0.0000
    56 H2A        -28.0757    27.9132   -33.3217 H            1 NAD403   0.0000
    57 H5D1       -24.8127    23.7886   -42.3043 H            1 NAD403   0.0000
    58 H5D2       -25.0566    25.2654   -42.9571 H            1 NAD403   0.0000
    59 H4D        -22.7905    24.8562   -42.2479 H            1 NAD403   0.0000
    60 H3D        -23.3775    26.1831   -44.5120 H            1 NAD403   0.0000
    61 H17        -21.3088    27.1390   -44.2494 H            1 NAD403   0.0000
    62 H2D        -22.6992    24.4078   -45.8942 H            1 NAD403   0.0000
    63 H19        -20.8692    25.0944   -46.8478 H            1 NAD403   0.0000
    64 H1D        -20.6261    24.0277   -43.8355 H            1 NAD403   0.0000
    65 H2N        -19.1215    22.4442   -44.1745 H            1 NAD403   0.0000
    66 H7N1       -16.4967    20.2272   -43.4953 H            1 NAD403   0.0000
    67 H7N2       -17.7864    21.3713   -43.3289 H            1 NAD403   0.0000
    68 H4N        -19.6119    19.3894   -46.9094 H            1 NAD403   0.0000
    69 H5N        -21.8323    20.1535   -47.3418 H            1 NAD403   0.0000
    70 H6N        -22.6467    22.1154   -46.2641 H            1 NAD403   0.0000
@<TRIPOS>BOND
     1    1    2      ar
     2    1    3      ar
     3    1    4       1
     4    1   23       1
     5    4    5       1
     6    5    6       1
     7    6    7       1
     8    6    8       1
     9    7   12       1
    10    8    9       1
    11    8   10       1
    12   10   11       1
    13   10   12       1
    14   12   13       1
    15   13   14       1
    16   13   22       1
    17   14   15       2
    18   15   16       1
    19   16   17      ar
    20   16   22      ar
    21   17   18       1
    22   17   19      ar
    23   19   20      ar
    24   20   21      ar
    25   21   22      ar
    26   23   24       1
    27   24   25      ar
    28   24   26      ar
    29   24   27       1
    30   27   28       1
    31   28   29       1
    32   29   30       1
    33   29   31       1
    34   30   35       1
    35   31   32       1
    36   31   33       1
    37   33   34       1
    38   33   35       1
    39   35   36       1
    40   36   37      ar
    41   36   44      ar
    42   37   38      ar
    43   38   39       1
    44   38   42      ar
    45   39   40       2
    46   39   41      am
    47   42   43      ar
    48   43   44      ar
    49   44   70       1
    50    5   45       1
    51    5   46       1
    52    6   47       1
    53    8   48       1
    54    9   49       1
    55   10   50       1
    56   11   51       1
    57   12   52       1
    58   14   53       1
    59   18   54       1
    60   18   55       1
    61   20   56       1
    62   43   69       1
    63   28   57       1
    64   28   58       1
    65   29   59       1
    66   31   60       1
    67   32   61       1
    68   33   62       1
    69   34   63       1
    70   35   64       1
    71   37   65       1
    72   41   66       1
    73   41   67       1
    74   42   68       1
@<TRIPOS>SUBSTRUCTURE
     1 NAD403      1 GROUP             4 A     NAD     0 **** NAD A 403
