@<TRIPOS>MOLECULE
3ubm_COA_4_ligand
   80    82     1     0     0
SMALL
NO_CHARGES


@<TRIPOS>ATOM
     1 N1A        -30.7310   -13.0760   135.8610 N.ar         1 COA2003   0.0000
     2 C2A        -31.9930   -12.7100   136.0830 C.ar         1 COA2003   0.0000
     3 N3A        -32.5510   -11.6690   135.4640 N.ar         1 COA2003   0.0000
     4 C4A        -31.8420   -10.9490   134.5750 C.ar         1 COA2003   0.0000
     5 C5A        -30.5230   -11.2990   134.3140 C.ar         1 COA2003   0.0000
     6 C6A        -29.9720   -12.3930   134.9890 C.ar         1 COA2003   0.0000
     7 N6A        -28.6230   -12.8360   134.7410 N.pl3        1 COA2003   0.0000
     8 N7A        -30.0700   -10.4260   133.3970 N.2          1 COA2003   0.0000
     9 C8A        -31.0490    -9.5650   133.0920 C.2          1 COA2003   0.0000
    10 N9A        -32.1270    -9.8830   133.8100 N.pl3        1 COA2003   0.0000
    11 C1B        -33.4130    -9.2710   133.7940 C.3          1 COA2003   0.0000
    12 C2B        -33.3950    -7.7950   133.5860 C.3          1 COA2003   0.0000
    13 O2B        -32.9910    -7.1410   134.7400 O.3          1 COA2003   0.0000
    14 C3B        -34.7680    -7.5430   133.3160 C.3          1 COA2003   0.0000
    15 O3B        -35.4740    -7.3820   134.5490 O.3          1 COA2003   0.0000
    16 P3B        -36.8760    -6.5810   134.6970 P.3          1 COA2003   0.0000
    17 O7A        -36.9000    -5.8290   136.0050 O.co2        1 COA2003   0.0000
    18 O8A        -38.0350    -7.5610   134.7150 O.co2        1 COA2003  -1.0000
    19 O9A        -37.0720    -5.5990   133.5510 O.co2        1 COA2003  -1.0000
    20 C4B        -35.2410    -8.7660   132.6510 C.3          1 COA2003   0.0000
    21 O4B        -34.1910    -9.7060   132.7330 O.3          1 COA2003   0.0000
    22 C5B        -35.5360    -8.5170   131.2260 C.3          1 COA2003   0.0000
    23 O5B        -34.7180    -7.5800   130.5190 O.3          1 COA2003   0.0000
    24 P1A        -34.7820    -7.5170   128.9190 P.3          1 COA2003   0.0000
    25 O1A        -34.0550    -8.7200   128.3160 O.co2        1 COA2003   0.0000
    26 O2A        -34.0280    -6.2710   128.4980 O.co2        1 COA2003  -1.0000
    27 O3A        -36.3070    -7.4340   128.4580 O.3          1 COA2003   0.0000
    28 P2A        -36.8600    -7.8650   127.0280 P.3          1 COA2003   0.0000
    29 O4A        -38.3780    -7.8710   127.1110 O.co2        1 COA2003   0.0000
    30 O5A        -36.3860    -9.2460   126.6640 O.co2        1 COA2003  -1.0000
    31 O6A        -36.4530    -6.8500   125.8940 O.3          1 COA2003   0.0000
    32 CBP        -34.7860    -5.4630   124.6370 C.3          1 COA2003   0.0000
    33 CCP        -35.1780    -6.7710   125.3960 C.3          1 COA2003   0.0000
    34 CDP        -35.9870    -4.9190   123.8240 C.3          1 COA2003   0.0000
    35 CEP        -33.6200    -5.7260   123.7090 C.3          1 COA2003   0.0000
    36 CAP        -34.3870    -4.4490   125.7100 C.3          1 COA2003   0.0000
    37 OAP        -33.3930    -5.0580   126.4840 O.3          1 COA2003   0.0000
    38 C9P        -33.9120    -3.0640   125.2620 C.2          1 COA2003   0.0000
    39 O9P        -34.7300    -2.1670   124.9800 O.2          1 COA2003   0.0000
    40 N8P        -32.5430    -2.6770   125.5510 N.am         1 COA2003   0.0000
    41 C7P        -32.1300    -1.2930   125.3580 C.3          1 COA2003   0.0000
    42 C6P        -31.5970    -0.9100   123.9850 C.3          1 COA2003   0.0000
    43 C5P        -30.7530    -2.0030   123.3360 C.2          1 COA2003   0.0000
    44 O5P        -29.5570    -1.8570   123.1910 O.2          1 COA2003   0.0000
    45 N4P        -31.3920    -3.1710   122.7770 N.am         1 COA2003   0.0000
    46 C3P        -30.5690    -4.3200   122.3580 C.3          1 COA2003   0.0000
    47 C2P        -30.2280    -4.3470   120.8750 C.3          1 COA2003   0.0000
    48 S1P        -31.4560    -3.5850   119.8160 S.3          1 COA2003   0.0000
    49 H2A        -32.5401   -13.2338   136.7359 H            1 COA2003   0.0000
    50 H6A1       -28.0443   -12.3387   134.0946 H            1 COA2003   0.0000
    51 H6A2       -28.2658   -13.6406   135.2153 H            1 COA2003   0.0000
    52 H8A        -30.9831    -8.8119   132.4374 H            1 COA2003   0.0000
    53 H1B        -33.8843    -9.4756   134.6519 H            1 COA2003   0.0000
    54 H2B        -32.8200    -7.5452   132.8069 H            1 COA2003   0.0000
    55 H7         -33.7911    -6.9327   135.3025 H            1 COA2003   0.0000
    56 H3B        -34.8807    -6.7431   132.7266 H            1 COA2003   0.0000
    57 H4B        -36.0544    -9.1173   133.1146 H            1 COA2003   0.0000
    58 H5B1       -36.4786    -8.1875   131.1717 H            1 COA2003   0.0000
    59 H5B2       -35.4613    -9.3935   130.7504 H            1 COA2003   0.0000
    60 HCP1       -35.0551    -7.5346   124.7621 H            1 COA2003   0.0000
    61 HCP2       -34.5478    -6.8721   126.1659 H            1 COA2003   0.0000
    62 HDP1       -35.7153    -4.0833   123.3468 H            1 COA2003   0.0000
    63 HDP2       -36.2758    -5.6052   123.1564 H            1 COA2003   0.0000
    64 HDP3       -36.7453    -4.7173   124.4440 H            1 COA2003   0.0000
    65 HEP1       -33.3787    -4.8823   123.2295 H            1 COA2003   0.0000
    66 HEP2       -32.8351    -6.0429   124.2415 H            1 COA2003   0.0000
    67 HEP3       -33.8756    -6.4266   123.0428 H            1 COA2003   0.0000
    68 HAP        -35.1822    -4.3135   126.3010 H            1 COA2003   0.0000
    69 H21        -33.8173    -5.5514   127.2433 H            1 COA2003   0.0000
    70 H8P        -31.8872    -3.3562   125.8806 H            1 COA2003   0.0000
    71 H7P1       -31.4107    -1.0982   126.0248 H            1 COA2003   0.0000
    72 H7P2       -32.9234    -0.7137   125.5448 H            1 COA2003   0.0000
    73 H6P1       -31.0335    -0.0895   124.0813 H            1 COA2003   0.0000
    74 H6P2       -32.3739    -0.7125   123.3872 H            1 COA2003   0.0000
    75 H4P        -32.3863    -3.2003   122.6748 H            1 COA2003   0.0000
    76 H3P1       -31.0678    -5.1581   122.5788 H            1 COA2003   0.0000
    77 H3P2       -29.7131    -4.2956   122.8746 H            1 COA2003   0.0000
    78 H2P1       -30.1239    -5.3016   120.5958 H            1 COA2003   0.0000
    79 H2P2       -29.3614    -3.8653   120.7450 H            1 COA2003   0.0000
    80 H1P        -31.1577    -3.6444   118.8634 H            1 COA2003   0.0000
@<TRIPOS>BOND
     1    1    2      ar
     2    1    6      ar
     3    2    3      ar
     4    3    4      ar
     5    4    5      ar
     6    4   10       1
     7    5    6      ar
     8    5    8       1
     9    6    7       1
    10    8    9       2
    11    9   10       1
    12   10   11       1
    13   11   12       1
    14   11   21       1
    15   12   13       1
    16   12   14       1
    17   14   15       1
    18   14   20       1
    19   15   16       1
    20   16   17      ar
    21   16   18      ar
    22   16   19      ar
    23   20   21       1
    24   20   22       1
    25   22   23       1
    26   23   24       1
    27   24   25      ar
    28   24   26      ar
    29   24   27       1
    30   27   28       1
    31   28   29      ar
    32   28   30      ar
    33   28   31       1
    34   31   33       1
    35   32   33       1
    36   32   34       1
    37   32   35       1
    38   32   36       1
    39   36   37       1
    40   36   38       1
    41   38   39       2
    42   38   40      am
    43   40   41       1
    44   41   42       1
    45   42   43       1
    46   43   44       2
    47   43   45      am
    48   45   46       1
    49   46   47       1
    50   47   48       1
    51    2   49       1
    52    7   50       1
    53    7   51       1
    54    9   52       1
    55   11   53       1
    56   12   54       1
    57   13   55       1
    58   14   56       1
    59   48   80       1
    60   47   79       1
    61   20   57       1
    62   22   58       1
    63   22   59       1
    64   47   78       1
    65   46   77       1
    66   33   60       1
    67   33   61       1
    68   34   62       1
    69   34   63       1
    70   34   64       1
    71   35   65       1
    72   35   66       1
    73   35   67       1
    74   36   68       1
    75   37   69       1
    76   40   70       1
    77   41   71       1
    78   41   72       1
    79   42   73       1
    80   42   74       1
    81   45   75       1
    82   46   76       1
@<TRIPOS>SUBSTRUCTURE
     1 COA2003     1 GROUP             4 D     COA     0 **** COA D2003
