@<TRIPOS>MOLECULE
3nk7_SAM_1_ligand
   50    52     1     0     0
SMALL
NO_CHARGES


@<TRIPOS>ATOM
     1 N            3.3560     9.0890    22.9100 N.4          1 SAM770   1.0000
     2 CA           4.3790     9.8950    22.2540 C.3          1 SAM770   0.0000
     3 C            5.6630     9.1090    21.9730 C.2          1 SAM770   0.0000
     4 O            6.7720     9.5620    22.2660 O.co2        1 SAM770   0.0000
     5 OXT          5.6230     7.9970    21.4370 O.co2        1 SAM770  -1.0000
     6 CB           4.6660    11.1370    23.0880 C.3          1 SAM770   0.0000
     7 CG           4.0240    11.1160    24.4660 C.3          1 SAM770   0.0000
     8 SD           4.8850    12.1640    25.6700 S.3          1 SAM770   1.0000
     9 CE           3.5840    13.3330    26.1390 C.3          1 SAM770   0.0000
    10 C5'          5.9090    13.1670    24.5720 C.3          1 SAM770   0.0000
    11 C4'          7.2460    13.6490    25.1250 C.3          1 SAM770   0.0000
    12 O4'          7.7480    14.5450    24.1520 O.3          1 SAM770   0.0000
    13 C3'          7.1250    14.4180    26.4430 C.3          1 SAM770   0.0000
    14 O3'          7.8710    13.8180    27.4730 O.3          1 SAM770   0.0000
    15 C2'          7.6910    15.7940    26.1770 C.3          1 SAM770   0.0000
    16 O2'          8.9910    15.9140    26.7260 O.3          1 SAM770   0.0000
    17 C1'          7.7550    15.8650    24.6620 C.3          1 SAM770   0.0000
    18 N9           6.5770    16.5940    24.1310 N.pl3        1 SAM770   0.0000
    19 C8           5.4230    16.0700    23.5700 C.2          1 SAM770   0.0000
    20 N7           4.5990    17.0860    23.2080 N.2          1 SAM770   0.0000
    21 C5           5.2120    18.2600    23.5400 C.ar         1 SAM770   0.0000
    22 C6           4.8360    19.6080    23.4160 C.ar         1 SAM770   0.0000
    23 N6           3.6700    19.9540    22.8650 N.pl3        1 SAM770   0.0000
    24 N1           5.6960    20.5970    23.8600 N.ar         1 SAM770   0.0000
    25 C2           6.9190    20.2660    24.4300 C.ar         1 SAM770   0.0000
    26 N3           7.2930    18.9400    24.5580 N.ar         1 SAM770   0.0000
    27 C4           6.4520    17.9610    24.1190 C.ar         1 SAM770   0.0000
    28 H1           2.7901     9.6757    23.4892 H            1 SAM770   0.0000
    29 H2           2.7824     8.6507    22.2180 H            1 SAM770   0.0000
    30 HA           4.0099    10.1978    21.3753 H            1 SAM770   0.0000
    31 HB1          4.3225    11.9350    22.5928 H            1 SAM770   0.0000
    32 HB2          5.6561    11.2170    23.2032 H            1 SAM770   0.0000
    33 HG1          4.0271    10.1748    24.8040 H            1 SAM770   0.0000
    34 HG2          3.0806    11.4370    24.3822 H            1 SAM770   0.0000
    35 HE1          3.9428    13.9779    26.8138 H            1 SAM770   0.0000
    36 HE2          3.2780    13.8337    25.3292 H            1 SAM770   0.0000
    37 HE3          2.8128    12.8330    26.5329 H            1 SAM770   0.0000
    38 H5'1         5.3779    13.9754    24.3183 H            1 SAM770   0.0000
    39 H5'2         6.0986    12.6227    23.7548 H            1 SAM770   0.0000
    40 H4'          7.8709    12.8760    25.2347 H            1 SAM770   0.0000
    41 H3'          6.1644    14.4885    26.7118 H            1 SAM770   0.0000
    42 H15          7.5415    12.8860    27.6238 H            1 SAM770   0.0000
    43 H2'          7.0859    16.5026    26.5400 H            1 SAM770   0.0000
    44 H17          8.9264    16.2513    27.6652 H            1 SAM770   0.0000
    45 H1'          8.5944    16.3305    24.3813 H            1 SAM770   0.0000
    46 H19          5.2281    15.0965    23.4507 H            1 SAM770   0.0000
    47 H20          3.4212    20.9193    22.7861 H            1 SAM770   0.0000
    48 H21          3.0456    19.2478    22.5312 H            1 SAM770   0.0000
    49 H22          7.5316    20.9891    24.7491 H            1 SAM770   0.0000
    50 H23          3.7940     8.3879    23.4726 H            1 SAM770   0.0000
@<TRIPOS>BOND
     1    1    2       1
     2    2    3       1
     3    2    6       1
     4    3    4      ar
     5    3    5      ar
     6    6    7       1
     7    7    8       1
     8    8    9       1
     9    8   10       1
    10   10   11       1
    11   11   12       1
    12   11   13       1
    13   12   17       1
    14   13   14       1
    15   13   15       1
    16   15   16       1
    17   15   17       1
    18   17   18       1
    19   18   19       1
    20   18   27       1
    21   19   20       2
    22   20   21       1
    23   21   22      ar
    24   21   27      ar
    25   22   23       1
    26   22   24      ar
    27   24   25      ar
    28   25   26      ar
    29   26   27      ar
    30    1   28       1
    31    1   29       1
    32    2   30       1
    33    1   50       1
    34    6   31       1
    35    6   32       1
    36    7   33       1
    37    7   34       1
    38    9   35       1
    39    9   36       1
    40    9   37       1
    41   10   38       1
    42   10   39       1
    43   11   40       1
    44   13   41       1
    45   14   42       1
    46   15   43       1
    47   16   44       1
    48   17   45       1
    49   19   46       1
    50   23   47       1
    51   23   48       1
    52   25   49       1
@<TRIPOS>SUBSTRUCTURE
     1 SAM770      1 GROUP             4 A     SAM     0 **** SAM A 770
