@<TRIPOS>MOLECULE
1ykd_CMP_3_ligand
   34    37     1     0     0
SMALL
NO_CHARGES


@<TRIPOS>ATOM
     1 P            8.3390    26.9130    37.8020 P.3          1 CMP503   0.0000
     2 O1P          7.9400    25.6430    37.1950 O.2          1 CMP503   0.0000
     3 O2P          9.5310    26.9450    38.7140 O.3          1 CMP503   0.0000
     4 O5'          8.6180    27.9050    36.5750 O.3          1 CMP503   0.0000
     5 C5'          7.5360    28.3010    35.7310 C.3          1 CMP503   0.0000
     6 C4'          6.5200    28.9870    36.6080 C.3          1 CMP503   0.0000
     7 O4'          5.2890    29.4130    35.9460 O.3          1 CMP503   0.0000
     8 C3'          5.9980    27.9790    37.6140 C.3          1 CMP503   0.0000
     9 O3'          7.0760    27.6370    38.5080 O.3          1 CMP503   0.0000
    10 C2'          4.8670    28.7950    38.2380 C.3          1 CMP503   0.0000
    11 O2'          5.3650    29.6740    39.2630 O.3          1 CMP503   0.0000
    12 C1'          4.3600    29.6460    37.0380 C.3          1 CMP503   0.0000
    13 N9           3.0750    29.1470    36.5560 N.pl3        1 CMP503   0.0000
    14 C8           2.7680    27.9000    36.1970 C.2          1 CMP503   0.0000
    15 N7           1.4910    27.8670    35.8280 N.2          1 CMP503   0.0000
    16 C5           0.9980    29.0830    35.9680 C.ar         1 CMP503   0.0000
    17 C6          -0.2510    29.6320    35.7400 C.ar         1 CMP503   0.0000
    18 N6          -1.2650    28.9010    35.3000 N.pl3        1 CMP503   0.0000
    19 N1          -0.4260    30.9760    35.9900 N.ar         1 CMP503   0.0000
    20 C2           0.6350    31.7650    36.4540 C.ar         1 CMP503   0.0000
    21 N3           1.8230    31.2150    36.6640 N.ar         1 CMP503   0.0000
    22 C4           2.0100    29.9020    36.4340 C.ar         1 CMP503   0.0000
    23 H5'1         7.1280    27.4981    35.2964 H            1 CMP503   0.0000
    24 H5'2         7.8629    28.9312    35.0267 H            1 CMP503   0.0000
    25 H4'          6.9410    29.7602    37.0823 H            1 CMP503   0.0000
    26 H3'          5.6417    27.1655    37.1544 H            1 CMP503   0.0000
    27 H2'          4.1443    28.2007    38.5909 H            1 CMP503   0.0000
    28 H6           4.6567    29.8143    39.9549 H            1 CMP503   0.0000
    29 H1'          4.3097    30.6165    37.2739 H            1 CMP503   0.0000
    30 H8           3.3937    27.1199    36.2041 H            1 CMP503   0.0000
    31 H9          -2.1569    29.3255    35.1442 H            1 CMP503   0.0000
    32 H10         -1.1383    27.9248    35.1237 H            1 CMP503   0.0000
    33 H11          0.4965    32.7403    36.6263 H            1 CMP503   0.0000
    34 H2P          9.2359    26.7753    39.6543 H            1 CMP503   0.0000
@<TRIPOS>BOND
     1    1    2       2
     2    1    3       1
     3    1    4       1
     4    1    9       1
     5    4    5       1
     6    5    6       1
     7    6    7       1
     8    6    8       1
     9    7   12       1
    10    8    9       1
    11    8   10       1
    12   10   11       1
    13   10   12       1
    14   12   13       1
    15   13   14       1
    16   13   22       1
    17   14   15       2
    18   15   16       1
    19   16   17      ar
    20   16   22      ar
    21   17   18       1
    22   17   19      ar
    23   19   20      ar
    24   20   21      ar
    25   21   22      ar
    26   20   33       1
    27    5   23       1
    28    5   24       1
    29    6   25       1
    30    8   26       1
    31   10   27       1
    32   11   28       1
    33   12   29       1
    34   14   30       1
    35   18   31       1
    36   18   32       1
    37    3   34       1
@<TRIPOS>SUBSTRUCTURE
     1 CMP503      1 GROUP             4 B     CMP     0 **** CMP B 503
