@<TRIPOS>MOLECULE
4i3v_NAD_5_ligand
   39    41     1     0     0
SMALL
NO_CHARGES


@<TRIPOS>ATOM
     1 PA          50.7330    26.4540   100.0810 P.3          1 NAD501   0.0000
     2 O1A         49.6420    25.5510   100.5060 O.co2        1 NAD501   0.0000
     3 O2A         51.9270    26.2340   100.9700 O.co2        1 NAD501  -1.0000
     4 O5B         50.3040    27.9680   100.1580 O.3          1 NAD501   0.0000
     5 C5B         49.1080    28.4350    99.4800 C.3          1 NAD501   0.0000
     6 C4B         48.5440    29.6490   100.0000 C.3          1 NAD501   0.0000
     7 O4B         48.0730    29.4000   101.3010 O.3          1 NAD501   0.0000
     8 C3B         49.5920    30.6930   100.1130 C.3          1 NAD501   0.0000
     9 O3B         49.0170    31.9340    99.7960 O.3          1 NAD501   0.0000
    10 C2B         49.9430    30.6690   101.4780 C.3          1 NAD501   0.0000
    11 O2B         50.3850    31.9270   101.9370 O.3          1 NAD501   0.0000
    12 C1B         48.6250    30.3890   102.1110 C.3          1 NAD501   0.0000
    13 N9A         48.6290    29.9230   103.5020 N.pl3        1 NAD501   0.0000
    14 C8A         49.5690    29.1960   104.1220 C.2          1 NAD501   0.0000
    15 N7A         49.2010    28.9640   105.3880 N.2          1 NAD501   0.0000
    16 C5A         48.0110    29.5590   105.5720 C.ar         1 NAD501   0.0000
    17 C6A         47.1320    29.6800   106.6440 C.ar         1 NAD501   0.0000
    18 N6A         47.4480    29.0860   107.8880 N.pl3        1 NAD501   0.0000
    19 N1A         45.9810    30.3590   106.4860 N.ar         1 NAD501   0.0000
    20 C2A         45.6620    30.9380   105.3200 C.ar         1 NAD501   0.0000
    21 N3A         46.4850    30.8370   104.2780 N.ar         1 NAD501   0.0000
    22 C4A         47.6500    30.1660   104.3720 C.ar         1 NAD501   0.0000
    23 O3          51.0570    26.0970    98.5870 O.3          1 NAD501   0.0000
    24 PN          52.2390    26.7340    97.7890 P.3          1 NAD501   0.0000
    25 O1N         52.3020    25.9940    96.4650 O.co2        1 NAD501   0.0000
    26 O2N         53.5130    26.5210    98.5810 O.co2        1 NAD501  -1.0000
    27 O5D         52.0080    28.2840    97.5400 O.co2        1 NAD501  -1.0000
    28 H5B1        48.4143    27.7179    99.5477 H            1 NAD501   0.0000
    29 H5B2        49.3371    28.5875    98.5186 H            1 NAD501   0.0000
    30 H4B         47.7982    29.9658    99.4140 H            1 NAD501   0.0000
    31 H3B         50.3772    30.4910    99.5276 H            1 NAD501   0.0000
    32 H5          49.1052    32.1012    98.8140 H            1 NAD501   0.0000
    33 H2B         50.6082    29.9490   101.6758 H            1 NAD501   0.0000
    34 H7          51.3749    31.9978   101.8138 H            1 NAD501   0.0000
    35 H1B         48.0573    31.2099   102.0485 H            1 NAD501   0.0000
    36 H8A         50.4178    28.8751   103.7019 H            1 NAD501   0.0000
    37 H6A1        46.8164    29.1729   108.6584 H            1 NAD501   0.0000
    38 H6A2        48.3031    28.5791   107.9972 H            1 NAD501   0.0000
    39 H2A         44.8052    31.4463   105.2325 H            1 NAD501   0.0000
@<TRIPOS>BOND
     1    1    2      ar
     2    1    3      ar
     3    1    4       1
     4    1   23       1
     5    4    5       1
     6    5    6       1
     7    6    7       1
     8    6    8       1
     9    7   12       1
    10    8    9       1
    11    8   10       1
    12   10   11       1
    13   10   12       1
    14   12   13       1
    15   13   14       1
    16   13   22       1
    17   14   15       2
    18   15   16       1
    19   16   17      ar
    20   16   22      ar
    21   17   18       1
    22   17   19      ar
    23   19   20      ar
    24   20   21      ar
    25   21   22      ar
    26   23   24       1
    27   24   25      ar
    28   24   26      ar
    29   24   27      ar
    30   20   39       1
    31    5   28       1
    32    5   29       1
    33    6   30       1
    34    8   31       1
    35    9   32       1
    36   10   33       1
    37   11   34       1
    38   12   35       1
    39   14   36       1
    40   18   37       1
    41   18   38       1
@<TRIPOS>SUBSTRUCTURE
     1 NAD501      1 GROUP             4 E     NAD     0 **** NAD E 501
