@<TRIPOS>MOLECULE
3jv7_NAD_4_ligand
   70    74     1     0     0
SMALL
NO_CHARGES


@<TRIPOS>ATOM
     1 PA          27.9110     7.4490    57.6780 P.3          1 NAD503   0.0000
     2 O1A         27.9080     8.2300    56.4170 O.co2        1 NAD503   0.0000
     3 O2A         27.0840     6.2200    57.6490 O.co2        1 NAD503  -1.0000
     4 O5B         27.4390     8.3630    58.9140 O.3          1 NAD503   0.0000
     5 C5B         28.0900     9.5740    59.2080 C.3          1 NAD503   0.0000
     6 C4B         27.3950    10.2210    60.4060 C.3          1 NAD503   0.0000
     7 O4B         28.2270    11.2680    60.8790 O.3          1 NAD503   0.0000
     8 C3B         26.0470    10.8500    60.0420 C.3          1 NAD503   0.0000
     9 O3B         25.0900    10.5500    61.0470 O.3          1 NAD503   0.0000
    10 C2B         26.3570    12.3430    59.9870 C.3          1 NAD503   0.0000
    11 O2B         25.2610    13.1610    60.3330 O.3          1 NAD503   0.0000
    12 C1B         27.4660    12.4480    61.0230 C.3          1 NAD503   0.0000
    13 N9A         28.3290    13.6440    60.9200 N.pl3        1 NAD503   0.0000
    14 C8A         28.9580    14.1830    59.8220 C.2          1 NAD503   0.0000
    15 N7A         29.6630    15.2710    60.2320 N.2          1 NAD503   0.0000
    16 C5A         29.4890    15.4300    61.5720 C.ar         1 NAD503   0.0000
    17 C6A         29.9580    16.3570    62.4940 C.ar         1 NAD503   0.0000
    18 N6A         30.7400    17.3800    62.1250 N.pl3        1 NAD503   0.0000
    19 N1A         29.5940    16.2250    63.8180 N.ar         1 NAD503   0.0000
    20 C2A         28.7700    15.1990    64.2290 C.ar         1 NAD503   0.0000
    21 N3A         28.2980    14.2800    63.3120 N.ar         1 NAD503   0.0000
    22 C4A         28.6510    14.4080    62.0070 C.ar         1 NAD503   0.0000
    23 O3          29.4700     7.1200    57.9330 O.3          1 NAD503   0.0000
    24 PN          30.0570     5.6770    58.3460 P.3          1 NAD503   0.0000
    25 O1N         29.9640     4.7500    57.2000 O.co2        1 NAD503   0.0000
    26 O2N         29.5080     5.2810    59.6610 O.co2        1 NAD503  -1.0000
    27 O5D         31.6230     6.0650    58.5290 O.3          1 NAD503   0.0000
    28 C5D         32.0320     7.0710    59.4480 C.3          1 NAD503   0.0000
    29 C4D         33.5210     7.4020    59.2960 C.3          1 NAD503   0.0000
    30 O4D         34.3260     6.3210    59.7470 O.3          1 NAD503   0.0000
    31 C3D         33.9070     7.6390    57.8460 C.3          1 NAD503   0.0000
    32 O3D         34.8320     8.6960    57.8110 O.3          1 NAD503   0.0000
    33 C2D         34.5960     6.3510    57.4470 C.3          1 NAD503   0.0000
    34 O2D         35.4940     6.5690    56.3870 O.3          1 NAD503   0.0000
    35 C1D         35.2900     5.9930    58.7580 C.3          1 NAD503   0.0000
    36 N1N         35.6870     4.5810    58.9140 N.ar         1 NAD503   1.0000
    37 C2N         36.9580     4.2870    59.3520 C.ar         1 NAD503   0.0000
    38 C3N         37.3670     2.9720    59.5390 C.ar         1 NAD503   0.0000
    39 C7N         38.6620     2.6680    60.2530 C.2          1 NAD503   0.0000
    40 O7N         39.2000     1.3730    60.1650 O.2          1 NAD503   0.0000
    41 N7N         39.2760     3.6130    60.9500 N.am         1 NAD503   0.0000
    42 C4N         36.4710     1.9370    59.2780 C.ar         1 NAD503   0.0000
    43 C5N         35.1770     2.2400    58.8470 C.ar         1 NAD503   0.0000
    44 C6N         34.7940     3.5730    58.6750 C.ar         1 NAD503   0.0000
    45 H5B1        28.0385    10.1849    58.4180 H            1 NAD503   0.0000
    46 H5B2        29.0487     9.3962    59.4300 H            1 NAD503   0.0000
    47 H4B         27.2656     9.5412    61.1279 H            1 NAD503   0.0000
    48 H3B         25.7352    10.5223    59.1502 H            1 NAD503   0.0000
    49 H5          25.4007    10.9176    61.9235 H            1 NAD503   0.0000
    50 H2B         26.7032    12.5919    59.0824 H            1 NAD503   0.0000
    51 H7          25.2705    13.3318    61.3183 H            1 NAD503   0.0000
    52 H1B         27.0474    12.4415    61.9312 H            1 NAD503   0.0000
    53 H8A         28.9059    13.8355    58.8858 H            1 NAD503   0.0000
    54 H6A1        31.0642    18.0336    62.8089 H            1 NAD503   0.0000
    55 H6A2        30.9996    17.4902    61.1656 H            1 NAD503   0.0000
    56 H2A         28.5136    15.1199    65.1923 H            1 NAD503   0.0000
    57 H5D1        31.8649     6.7472    60.3793 H            1 NAD503   0.0000
    58 H5D2        31.4968     7.8992    59.2820 H            1 NAD503   0.0000
    59 H4D         33.7342     8.2187    59.8322 H            1 NAD503   0.0000
    60 H3D         33.1079     7.8254    57.2744 H            1 NAD503   0.0000
    61 H17         34.4131     9.5184    58.1960 H            1 NAD503   0.0000
    62 H2D         33.9236     5.6526    57.2017 H            1 NAD503   0.0000
    63 H19         35.5609     5.7405    55.8311 H            1 NAD503   0.0000
    64 H1D         36.0939     6.5762    58.8752 H            1 NAD503   0.0000
    65 H2N         37.5982     5.0322    59.5389 H            1 NAD503   0.0000
    66 H7N1        40.1337     3.4088    61.4219 H            1 NAD503   0.0000
    67 H7N2        38.8817     4.5304    61.0041 H            1 NAD503   0.0000
    68 H4N         36.7521     0.9849    59.3983 H            1 NAD503   0.0000
    69 H5N         34.5258     1.5041    58.6618 H            1 NAD503   0.0000
    70 H6N         33.8647     3.7904    58.3764 H            1 NAD503   0.0000
@<TRIPOS>BOND
     1    1    2      ar
     2    1    3      ar
     3    1    4       1
     4    1   23       1
     5    4    5       1
     6    5    6       1
     7    6    7       1
     8    6    8       1
     9    7   12       1
    10    8    9       1
    11    8   10       1
    12   10   11       1
    13   10   12       1
    14   12   13       1
    15   13   14       1
    16   13   22       1
    17   14   15       2
    18   15   16       1
    19   16   17      ar
    20   16   22      ar
    21   17   18       1
    22   17   19      ar
    23   19   20      ar
    24   20   21      ar
    25   21   22      ar
    26   23   24       1
    27   24   25      ar
    28   24   26      ar
    29   24   27       1
    30   27   28       1
    31   28   29       1
    32   29   30       1
    33   29   31       1
    34   30   35       1
    35   31   32       1
    36   31   33       1
    37   33   34       1
    38   33   35       1
    39   35   36       1
    40   36   37      ar
    41   36   44      ar
    42   37   38      ar
    43   38   39       1
    44   38   42      ar
    45   39   40       2
    46   39   41      am
    47   42   43      ar
    48   43   44      ar
    49   44   70       1
    50    5   45       1
    51    5   46       1
    52    6   47       1
    53    8   48       1
    54    9   49       1
    55   10   50       1
    56   11   51       1
    57   12   52       1
    58   14   53       1
    59   18   54       1
    60   18   55       1
    61   20   56       1
    62   43   69       1
    63   28   57       1
    64   28   58       1
    65   29   59       1
    66   31   60       1
    67   32   61       1
    68   33   62       1
    69   34   63       1
    70   35   64       1
    71   37   65       1
    72   41   66       1
    73   41   67       1
    74   42   68       1
@<TRIPOS>SUBSTRUCTURE
     1 NAD503      1 GROUP             4 D     NAD     0 **** NAD D 503
