@<TRIPOS>MOLECULE
2ive_TWN_1_ligand
   67    67     1     0     0
SMALL
NO_CHARGES


@<TRIPOS>ATOM
     1 OAG         76.2910    34.3950    26.6170 O.2          1 TWN4002   0.0000
     2 CAE         76.8670    34.7370    27.6370 C.2          1 TWN4002   0.0000
     3 OAI         76.3340    34.3560    28.8210 O.3          1 TWN4002   0.0000
     4 CAJ         75.8060    35.4030    29.6090 C.3          1 TWN4002   0.0000
     5 CAM         76.8680    35.7980    30.6250 C.3          1 TWN4002   0.0000
     6 CAH         76.2320    36.1200    31.9730 C.3          1 TWN4002   0.0000
     7 CAO         75.2280    37.2380    31.8430 C.3          1 TWN4002   0.0000
     8 CAB         77.3110    36.4550    32.9860 C.3          1 TWN4002   0.0000
     9 OAA         78.0100    35.2810    33.3650 O.3          1 TWN4002   0.0000
    10 CAD         78.6950    35.6020    34.5850 C.3          1 TWN4002   0.0000
    11 CAF         77.7800    36.5760    35.3210 C.3          1 TWN4002   0.0000
    12 CAN         77.1420    35.9380    36.5410 C.3          1 TWN4002   0.0000
    13 CAC         76.7430    36.9750    34.2840 C.3          1 TWN4002   0.0000
    14 CAK         75.4020    36.3400    34.5590 C.3          1 TWN4002   0.0000
    15 CAL         78.1480    35.5660    27.5530 C.3          1 TWN4002   0.0000
    16 CAP         79.3700    34.7150    27.2080 C.3          1 TWN4002   0.0000
    17 CAW         80.1220    34.2950    28.4800 C.3          1 TWN4002   0.0000
    18 CAS         81.6100    34.6260    28.4310 C.3          1 TWN4002   0.0000
    19 CAX         82.5080    33.4300    28.7270 C.3          1 TWN4002   0.0000
    20 CAT         82.8970    32.7060    27.4390 C.3          1 TWN4002   0.0000
    21 CAU         84.3000    32.0970    27.5000 C.3          1 TWN4002   0.0000
    22 CAV         84.7780    31.8580    28.9280 C.3          1 TWN4002   0.0000
    23 CAR         84.4910    33.0550    29.8290 C.3          1 TWN4002   0.0000
    24 CAQ         85.4060    33.0650    31.0530 C.3          1 TWN4002   0.0000
    25 CAY         84.9000    32.0850    32.1220 C.3          1 TWN4002   0.0000
    26 HAJ1        74.9817    35.0912    30.0816 H            1 TWN4002   0.0000
    27 HAJ2        75.5816    36.1860    29.0289 H            1 TWN4002   0.0000
    28 HAM1        77.3570    36.6042    30.2919 H            1 TWN4002   0.0000
    29 HAM2        77.5115    35.0410    30.7382 H            1 TWN4002   0.0000
    30 HAH         75.7492    35.3043    32.2916 H            1 TWN4002   0.0000
    31 HAO1        74.8256    37.4304    32.7380 H            1 TWN4002   0.0000
    32 HAO2        75.6853    38.0584    31.4998 H            1 TWN4002   0.0000
    33 HAO3        74.5075    36.9664    31.2050 H            1 TWN4002   0.0000
    34 HAB         77.9476    37.1224    32.5995 H            1 TWN4002   0.0000
    35 HAD1        79.5766    36.0311    34.3885 H            1 TWN4002   0.0000
    36 HAD2        78.8401    34.7774    35.1319 H            1 TWN4002   0.0000
    37 HAF         78.3029    37.3818    35.5991 H            1 TWN4002   0.0000
    38 HAN1        76.5515    36.6049    36.9955 H            1 TWN4002   0.0000
    39 HAN2        76.5972    35.1486    36.2579 H            1 TWN4002   0.0000
    40 HAN3        77.8569    35.6400    37.1736 H            1 TWN4002   0.0000
    41 HAC         76.6539    37.9704    34.2487 H            1 TWN4002   0.0000
    42 HAK1        75.0367    36.6924    35.4206 H            1 TWN4002   0.0000
    43 HAK2        74.7707    36.5589    33.8150 H            1 TWN4002   0.0000
    44 HAK3        75.5099    35.3479    34.6236 H            1 TWN4002   0.0000
    45 HAL1        78.3033    36.0079    28.4365 H            1 TWN4002   0.0000
    46 HAL2        78.0330    36.2644    26.8466 H            1 TWN4002   0.0000
    47 HAP1        79.9846    35.2459    26.6245 H            1 TWN4002   0.0000
    48 HAP2        79.0709    33.8957    26.7188 H            1 TWN4002   0.0000
    49 HAW1        80.0192    33.3075    28.5992 H            1 TWN4002   0.0000
    50 HAW2        79.7159    34.7691    29.2612 H            1 TWN4002   0.0000
    51 HAS1        81.7984    35.3385    29.1069 H            1 TWN4002   0.0000
    52 HAS2        81.8285    34.9676    27.5169 H            1 TWN4002   0.0000
    53 HAX1        82.0197    32.7943    29.3249 H            1 TWN4002   0.0000
    54 HAX2        83.3371    33.7492    29.1860 H            1 TWN4002   0.0000
    55 HAT1        82.8654    33.3599    26.6831 H            1 TWN4002   0.0000
    56 HAT2        82.2376    31.9727    27.2732 H            1 TWN4002   0.0000
    57 HAU1        84.9389    32.7204    27.0492 H            1 TWN4002   0.0000
    58 HAU2        84.2900    31.2222    27.0156 H            1 TWN4002   0.0000
    59 HAV1        85.7639    31.6911    28.9157 H            1 TWN4002   0.0000
    60 HAV2        84.3086    31.0556    29.2965 H            1 TWN4002   0.0000
    61 HAR1        83.5398    33.0114    30.1344 H            1 TWN4002   0.0000
    62 HAR2        84.6356    33.8962    29.3080 H            1 TWN4002   0.0000
    63 HAQ1        85.4277    33.9875    31.4383 H            1 TWN4002   0.0000
    64 HAQ2        86.3287    32.7983    30.7745 H            1 TWN4002   0.0000
    65 HAY1        85.5126    32.1081    32.9121 H            1 TWN4002   0.0000
    66 HAY2        83.9785    32.3491    32.4068 H            1 TWN4002   0.0000
    67 HAY3        84.8795    31.1598    31.7431 H            1 TWN4002   0.0000
@<TRIPOS>BOND
     1    1    2       2
     2    2    3       1
     3    2   15       1
     4    3    4       1
     5    4    5       1
     6    5    6       1
     7    6    7       1
     8    6    8       1
     9    8    9       1
    10    8   13       1
    11    9   10       1
    12   10   11       1
    13   11   12       1
    14   11   13       1
    15   13   14       1
    16   15   16       1
    17   16   17       1
    18   17   18       1
    19   18   19       1
    20   19   20       1
    21   20   21       1
    22   21   22       1
    23   22   23       1
    24   23   24       1
    25   24   25       1
    26    4   26       1
    27    4   27       1
    28    5   28       1
    29    5   29       1
    30    6   30       1
    31    7   31       1
    32    7   32       1
    33    7   33       1
    34    8   34       1
    35   10   35       1
    36   10   36       1
    37   11   37       1
    38   12   38       1
    39   12   39       1
    40   12   40       1
    41   13   41       1
    42   14   42       1
    43   14   43       1
    44   14   44       1
    45   15   45       1
    46   15   46       1
    47   16   47       1
    48   16   48       1
    49   17   49       1
    50   17   50       1
    51   18   51       1
    52   18   52       1
    53   19   53       1
    54   19   54       1
    55   20   55       1
    56   20   56       1
    57   21   57       1
    58   21   58       1
    59   22   59       1
    60   22   60       1
    61   23   61       1
    62   23   62       1
    63   24   63       1
    64   24   64       1
    65   25   65       1
    66   25   66       1
    67   25   67       1
@<TRIPOS>SUBSTRUCTURE
     1 TWN4002     1 GROUP             4 A     TWN     0 **** TWN A4002
