@<TRIPOS>MOLECULE
1f8w_FAD_1_ligand
   84    89     1     0     0
SMALL
NO_CHARGES


@<TRIPOS>ATOM
     1 PA          60.7800    56.9480    67.0030 P.3          1 FAD448   0.0000
     2 O1A         60.0410    57.8120    66.0560 O.co2        1 FAD448   0.0000
     3 O2A         61.5210    57.5870    68.0990 O.co2        1 FAD448  -1.0000
     4 O5B         61.8450    56.0740    66.1820 O.3          1 FAD448   0.0000
     5 C5B         61.5000    55.3910    64.9780 C.3          1 FAD448   0.0000
     6 C4B         62.8300    55.0620    64.3420 C.3          1 FAD448   0.0000
     7 O4B         62.6180    54.0890    63.3250 O.3          1 FAD448   0.0000
     8 C3B         63.4390    56.2850    63.6980 C.3          1 FAD448   0.0000
     9 O3B         64.8460    56.3200    63.9350 O.3          1 FAD448   0.0000
    10 C2B         63.1970    56.0850    62.2180 C.3          1 FAD448   0.0000
    11 O2B         64.3050    56.6140    61.4740 O.3          1 FAD448   0.0000
    12 C1B         63.1450    54.5810    62.0870 C.3          1 FAD448   0.0000
    13 N9A         62.2690    54.1390    60.9730 N.pl3        1 FAD448   0.0000
    14 C8A         60.9930    54.5090    60.7910 C.2          1 FAD448   0.0000
    15 N7A         60.4550    53.8740    59.7460 N.2          1 FAD448   0.0000
    16 C5A         61.4240    53.1010    59.2860 C.ar         1 FAD448   0.0000
    17 C6A         61.4760    52.1850    58.2970 C.ar         1 FAD448   0.0000
    18 N6A         60.3980    52.0040    57.5350 N.pl3        1 FAD448   0.0000
    19 N1A         62.5880    51.4540    58.0740 N.ar         1 FAD448   0.0000
    20 C2A         63.6810    51.6230    58.8110 C.ar         1 FAD448   0.0000
    21 N3A         63.6970    52.5270    59.7820 N.ar         1 FAD448   0.0000
    22 C4A         62.5890    53.2480    60.0400 C.ar         1 FAD448   0.0000
    23 N1          59.7810    60.7270    76.0980 N.2          1 FAD448   0.0000
    24 C2          59.9430    60.5300    77.4200 C.2          1 FAD448   0.0000
    25 O2          59.4340    59.5470    77.9630 O.2          1 FAD448   0.0000
    26 N3          60.6770    61.4550    78.1680 N.pl3        1 FAD448   0.0000
    27 C4          61.2400    62.5700    77.5400 C.2          1 FAD448   0.0000
    28 O4          61.9430    63.3510    78.1800 O.2          1 FAD448   0.0000
    29 C4X         61.0520    62.7490    76.1740 C.2          1 FAD448   0.0000
    30 N5          61.5670    63.8290    75.5490 N.2          1 FAD448   0.0000
    31 C5X         61.3990    64.0320    74.2310 C.ar         1 FAD448   0.0000
    32 C6          62.0100    65.1390    73.6340 C.ar         1 FAD448   0.0000
    33 C7          61.9560    65.3040    72.2490 C.ar         1 FAD448   0.0000
    34 C7M         62.6970    66.4790    71.6030 C.3          1 FAD448   0.0000
    35 C8          61.2810    64.3630    71.4630 C.ar         1 FAD448   0.0000
    36 C8M         61.2690    64.4820    69.9370 C.3          1 FAD448   0.0000
    37 C9          60.6520    63.2680    72.0680 C.ar         1 FAD448   0.0000
    38 C9A         60.7030    63.0960    73.4530 C.ar         1 FAD448   0.0000
    39 N10         60.1340    61.9690    74.0870 N.pl3        1 FAD448   0.0000
    40 C10         60.3120    61.7920    75.4710 C.2          1 FAD448   0.0000
    41 C1'         59.3030    60.9980    73.3300 C.3          1 FAD448   0.0000
    42 C2'         60.0820    59.7380    72.9610 C.3          1 FAD448   0.0000
    43 O2'         61.3650    60.1200    72.4680 O.3          1 FAD448   0.0000
    44 C3'         59.3090    58.9070    71.9290 C.3          1 FAD448   0.0000
    45 O3'         58.0920    58.4900    72.5640 O.3          1 FAD448   0.0000
    46 C4'         60.0630    57.6540    71.4580 C.3          1 FAD448   0.0000
    47 O4'         61.2540    58.0180    70.7550 O.3          1 FAD448   0.0000
    48 C5'         59.2260    56.8610    70.4590 C.3          1 FAD448   0.0000
    49 O5'         59.9180    55.6780    70.1110 O.3          1 FAD448   0.0000
    50 P           59.5320    54.8510    68.7930 P.3          1 FAD448   0.0000
    51 O1P         58.0960    54.4970    68.8690 O.co2        1 FAD448   0.0000
    52 O2P         60.4890    53.7250    68.7280 O.co2        1 FAD448  -1.0000
    53 O3P         59.7180    55.8980    67.5930 O.3          1 FAD448   0.0000
    54 H5B1        60.9571    55.9802    64.3795 H            1 FAD448   0.0000
    55 H5B2        60.9871    54.5564    65.1786 H            1 FAD448   0.0000
    56 H4B         63.4542    54.6978    65.0332 H            1 FAD448   0.0000
    57 H3B         62.9982    57.1210    64.0249 H            1 FAD448   0.0000
    58 H5          65.2698    55.5014    63.5473 H            1 FAD448   0.0000
    59 H2B         62.3352    56.5038    61.9318 H            1 FAD448   0.0000
    60 H7          65.1432    56.1387    61.7412 H            1 FAD448   0.0000
    61 H1B         64.0689    54.2238    61.9497 H            1 FAD448   0.0000
    62 H8A         60.5086    55.1721    61.3616 H            1 FAD448   0.0000
    63 H6A1        60.4152    51.3301    56.7964 H            1 FAD448   0.0000
    64 H6A2        59.5718    52.5421    57.7017 H            1 FAD448   0.0000
    65 H2A         64.4933    51.0675    58.6333 H            1 FAD448   0.0000
    66 H13         60.7993    61.3194    79.1512 H            1 FAD448   0.0000
    67 H14         62.4858    65.8127    74.1995 H            1 FAD448   0.0000
    68 H7M1        62.5598    66.4557    70.6127 H            1 FAD448   0.0000
    69 H7M2        62.3412    67.3390    71.9687 H            1 FAD448   0.0000
    70 H7M3        63.6737    66.4092    71.8059 H            1 FAD448   0.0000
    71 H8M1        60.7417    63.7267    69.5479 H            1 FAD448   0.0000
    72 H8M2        60.8504    65.3512    69.6737 H            1 FAD448   0.0000
    73 H8M3        62.2071    64.4459    69.5925 H            1 FAD448   0.0000
    74 H21         60.1621    62.6036    71.5036 H            1 FAD448   0.0000
    75 H1'1        58.9811    61.4353    72.4902 H            1 FAD448   0.0000
    76 H1'2        58.5181    60.7383    73.8926 H            1 FAD448   0.0000
    77 H2'         60.2076    59.1868    73.7859 H            1 FAD448   0.0000
    78 H25         61.6813    59.4438    71.8026 H            1 FAD448   0.0000
    79 H3'         59.0911    59.4795    71.1385 H            1 FAD448   0.0000
    80 H27         57.3731    58.3931    71.8757 H            1 FAD448   0.0000
    81 H4'         60.2926    57.0788    72.2431 H            1 FAD448   0.0000
    82 H29         61.2134    57.6593    69.8224 H            1 FAD448   0.0000
    83 H5'1        59.0721    57.4123    69.6390 H            1 FAD448   0.0000
    84 H5'2        58.3464    56.6251    70.8720 H            1 FAD448   0.0000
@<TRIPOS>BOND
     1    1    2      ar
     2    1    3      ar
     3    1    4       1
     4    1   53       1
     5    4    5       1
     6    5    6       1
     7    6    7       1
     8    6    8       1
     9    7   12       1
    10    8    9       1
    11    8   10       1
    12   10   11       1
    13   10   12       1
    14   12   13       1
    15   13   14       1
    16   13   22       1
    17   14   15       2
    18   15   16       1
    19   16   17      ar
    20   16   22      ar
    21   17   18       1
    22   17   19      ar
    23   19   20      ar
    24   20   21      ar
    25   21   22      ar
    26   23   24       1
    27   23   40       2
    28   24   25       2
    29   24   26       1
    30   26   27       1
    31   27   28       2
    32   27   29       1
    33   29   30       2
    34   29   40       1
    35   30   31       1
    36   31   32      ar
    37   31   38      ar
    38   32   33      ar
    39   33   34       1
    40   33   35      ar
    41   35   36       1
    42   35   37      ar
    43   37   38      ar
    44   38   39       1
    45   39   40       1
    46   39   41       1
    47   41   42       1
    48   42   43       1
    49   42   44       1
    50   44   45       1
    51   44   46       1
    52   46   47       1
    53   46   48       1
    54   48   49       1
    55   49   50       1
    56   50   51      ar
    57   50   52      ar
    58   50   53       1
    59   48   84       1
    60    5   54       1
    61    5   55       1
    62    6   56       1
    63    8   57       1
    64    9   58       1
    65   10   59       1
    66   11   60       1
    67   12   61       1
    68   14   62       1
    69   18   63       1
    70   18   64       1
    71   20   65       1
    72   26   66       1
    73   32   67       1
    74   34   68       1
    75   34   69       1
    76   34   70       1
    77   36   71       1
    78   36   72       1
    79   36   73       1
    80   37   74       1
    81   41   75       1
    82   41   76       1
    83   42   77       1
    84   43   78       1
    85   44   79       1
    86   45   80       1
    87   46   81       1
    88   47   82       1
    89   48   83       1
@<TRIPOS>SUBSTRUCTURE
     1 FAD448      1 GROUP             4 A     FAD     0 **** FAD A 448
