@<TRIPOS>MOLECULE
3zp4_TSA_1_ligand
   26    27     1     0     0
SMALL
NO_CHARGES


@<TRIPOS>ATOM
     1 C1          24.0240    -0.2730    -3.7890 C.3          1 TSA1118   0.0000
     2 C2          22.5370    -0.5090    -3.6030 C.2          1 TSA1118   0.0000
     3 C3          21.8500     0.0530    -2.6060 C.2          1 TSA1118   0.0000
     4 C4          22.4890     0.9890    -1.5910 C.3          1 TSA1118   0.0000
     5 O5          22.3210     0.4620    -0.2770 O.3          1 TSA1118   0.0000
     6 C6          24.6310    -0.0570    -2.4210 C.3          1 TSA1118   0.0000
     7 C10         24.6240    -1.4880    -4.4510 C.2          1 TSA1118   0.0000
     8 O1          25.8080    -1.8000    -4.1980 O.co2        1 TSA1118   0.0000
     9 O2          23.9070    -2.1330    -5.2490 O.co2        1 TSA1118  -1.0000
    10 C9          24.3340     0.9390    -4.6670 C.3          1 TSA1118   0.0000
    11 C8          23.9790     2.2930    -4.0490 C.3          1 TSA1118   0.0000
    12 O7          24.2550     2.3470    -2.6280 O.3          1 TSA1118   0.0000
    13 C11         22.5520     2.6410    -4.4030 C.2          1 TSA1118   0.0000
    14 O3          22.0570     2.1010    -5.4190 O.co2        1 TSA1118   0.0000
    15 O4          21.9030     3.4380    -3.6850 O.co2        1 TSA1118  -1.0000
    16 C5          23.9870     1.1880    -1.8230 C.3          1 TSA1118   0.0000
    17 H1          22.0566    -1.1040    -4.2473 H            1 TSA1118   0.0000
    18 H2          20.8743    -0.1497    -2.5228 H            1 TSA1118   0.0000
    19 H3          22.0343     1.8782    -1.6420 H            1 TSA1118   0.0000
    20 H4          22.2731     1.2142     0.3802 H            1 TSA1118   0.0000
    21 H5          25.6187     0.0759    -2.5033 H            1 TSA1118   0.0000
    22 H6          24.4486    -0.8488    -1.8381 H            1 TSA1118   0.0000
    23 H7          23.8211     0.8434    -5.5201 H            1 TSA1118   0.0000
    24 H8          25.3142     0.9359    -4.8652 H            1 TSA1118   0.0000
    25 H9          24.5636     2.9763    -4.4865 H            1 TSA1118   0.0000
    26 H10         24.4090     1.3418    -0.9295 H            1 TSA1118   0.0000
@<TRIPOS>BOND
     1    1    2       1
     2    1    6       1
     3    1    7       1
     4    1   10       1
     5    2    3       2
     6    3    4       1
     7    4    5       1
     8    4   16       1
     9    6   16       1
    10    7    8      ar
    11    7    9      ar
    12   10   11       1
    13   11   12       1
    14   11   13       1
    15   12   16       1
    16   13   14      ar
    17   13   15      ar
    18    2   17       1
    19    3   18       1
    20    4   19       1
    21    5   20       1
    22    6   21       1
    23    6   22       1
    24   16   26       1
    25   10   23       1
    26   10   24       1
    27   11   25       1
@<TRIPOS>SUBSTRUCTURE
     1 TSA1118     1 GROUP             4 B     TSA     0 **** TSA B1118
