@<TRIPOS>MOLECULE
1o2e_ANN_1_ligand
   18    18     1     0     0
SMALL
NO_CHARGES


@<TRIPOS>ATOM
     1 C8          30.2770    -1.2140    67.8270 C.3          1 ANN401   0.0000
     2 O3          29.5250    -0.3910    66.8840 O.3          1 ANN401   0.0000
     3 C5          29.8450     0.9180    66.7180 C.ar         1 ANN401   0.0000
     4 C6          30.8610     1.6420    67.3620 C.ar         1 ANN401   0.0000
     5 C7          31.0470     3.0090    67.0720 C.ar         1 ANN401   0.0000
     6 C2          30.2110     3.7010    66.1230 C.ar         1 ANN401   0.0000
     7 C3          29.2140     2.9230    65.5010 C.ar         1 ANN401   0.0000
     8 C4          29.0110     1.5640    65.7740 C.ar         1 ANN401   0.0000
     9 C1          31.2230     4.6950    65.5400 C.2          1 ANN401   0.0000
    10 O1          30.8440     5.4700    64.6540 O.co2        1 ANN401   0.0000
    11 O2          32.4440     4.7180    65.9830 O.co2        1 ANN401  -1.0000
    12 H1          29.9108    -2.1445    67.8230 H            1 ANN401   0.0000
    13 H2          31.2400    -1.2335    67.5581 H            1 ANN401   0.0000
    14 H3          30.1952    -0.8275    68.7457 H            1 ANN401   0.0000
    15 H4          31.4534     1.1875    68.0272 H            1 ANN401   0.0000
    16 H5          31.7768     3.5111    67.5360 H            1 ANN401   0.0000
    17 H6          28.6197     3.3646    64.8289 H            1 ANN401   0.0000
    18 H7          28.2861     1.0567    65.3079 H            1 ANN401   0.0000
@<TRIPOS>BOND
     1    1    2       1
     2    2    3       1
     3    3    4      ar
     4    3    8      ar
     5    4    5      ar
     6    5    6      ar
     7    6    7      ar
     8    6    9       1
     9    7    8      ar
    10    9   10      ar
    11    9   11      ar
    12    1   12       1
    13    1   13       1
    14    1   14       1
    15    4   15       1
    16    5   16       1
    17    7   17       1
    18    8   18       1
@<TRIPOS>SUBSTRUCTURE
     1 ANN401      1 GROUP             4 A     ANN     0 **** ANN A 401
