@<TRIPOS>MOLECULE
3tri_NAP_1_ligand
   73    77     1     0     0
SMALL
NO_CHARGES


@<TRIPOS>ATOM
     1 PA          46.5810    -2.4290    22.2840 P.3          1 NAP281   0.0000
     2 O1A         46.8820    -2.8500    23.6710 O.co2        1 NAP281   0.0000
     3 O2A         45.7930    -3.4620    21.5760 O.co2        1 NAP281  -1.0000
     4 O5B         47.9680    -2.1210    21.5330 O.3          1 NAP281   0.0000
     5 C5B         48.1230    -1.0740    20.6010 C.3          1 NAP281   0.0000
     6 C4B         49.3520    -1.4180    19.7690 C.3          1 NAP281   0.0000
     7 O4B         50.2750    -0.3500    19.6860 O.3          1 NAP281   0.0000
     8 C3B         50.1080    -2.5920    20.3760 C.3          1 NAP281   0.0000
     9 O3B         49.9290    -3.7150    19.5500 O.3          1 NAP281   0.0000
    10 C2B         51.5670    -2.1770    20.4210 C.3          1 NAP281   0.0000
    11 O2B         52.3950    -3.1710    19.8660 O.3          1 NAP281   0.0000
    12 C1B         51.5660    -0.9230    19.5650 C.3          1 NAP281   0.0000
    13 N9A         52.6770    -0.0190    19.9170 N.pl3        1 NAP281   0.0000
    14 C8A         53.1430     0.2890    21.1680 C.2          1 NAP281   0.0000
    15 N7A         54.1770     1.1520    21.0370 N.2          1 NAP281   0.0000
    16 C5A         54.3730     1.3960    19.7220 C.ar         1 NAP281   0.0000
    17 C6A         55.2800     2.1910    19.0350 C.ar         1 NAP281   0.0000
    18 N6A         56.1860     2.9010    19.7000 N.pl3        1 NAP281   0.0000
    19 N1A         55.2370     2.2420    17.6570 N.ar         1 NAP281   0.0000
    20 C2A         54.3000     1.5070    16.9650 C.ar         1 NAP281   0.0000
    21 N3A         53.4030     0.7180    17.6550 N.ar         1 NAP281   0.0000
    22 C4A         53.4410     0.6620    19.0080 C.ar         1 NAP281   0.0000
    23 O3          45.8340    -1.0100    22.2390 O.3          1 NAP281   0.0000
    24 PN          44.2860    -0.5930    22.1200 P.3          1 NAP281   0.0000
    25 O1N         43.4790    -1.3020    23.1360 O.co2        1 NAP281   0.0000
    26 O2N         43.9350    -0.6790    20.6880 O.co2        1 NAP281  -1.0000
    27 O5D         44.4020     0.9490    22.5380 O.3          1 NAP281   0.0000
    28 C5D         44.9700     1.8430    21.6130 C.3          1 NAP281   0.0000
    29 C4D         44.4800     3.2440    21.9180 C.3          1 NAP281   0.0000
    30 O4D         43.0880     3.3410    21.6730 O.3          1 NAP281   0.0000
    31 C3D         44.7040     3.5360    23.3900 C.3          1 NAP281   0.0000
    32 O3D         45.3120     4.8000    23.5100 O.3          1 NAP281   0.0000
    33 C2D         43.3130     3.5460    23.9900 C.3          1 NAP281   0.0000
    34 O2D         43.2130     4.5220    24.9970 O.3          1 NAP281   0.0000
    35 C1D         42.4260     3.8780    22.8020 C.3          1 NAP281   0.0000
    36 N1N         41.0760     3.2970    22.9370 N.ar         1 NAP281   1.0000
    37 C2N         40.9060     1.9410    22.9850 C.ar         1 NAP281   0.0000
    38 C3N         39.6290     1.4030    23.1120 C.ar         1 NAP281   0.0000
    39 C7N         39.4350    -0.0820    23.1970 C.2          1 NAP281   0.0000
    40 O7N         38.1680    -0.5850    23.5550 O.2          1 NAP281   0.0000
    41 N7N         40.4600    -0.8880    22.9280 N.am         1 NAP281   0.0000
    42 C4N         38.5250     2.2420    23.1800 C.ar         1 NAP281   0.0000
    43 C5N         38.7080     3.6160    23.1260 C.ar         1 NAP281   0.0000
    44 C6N         39.9950     4.1310    23.0020 C.ar         1 NAP281   0.0000
    45 P2B         52.7730    -4.4730    20.7400 P.3          1 NAP281   0.0000
    46 O1X         52.9620    -5.6270    19.7910 O.co2        1 NAP281   0.0000
    47 O2X         51.6770    -4.8000    21.7260 O.co2        1 NAP281  -1.0000
    48 O3X         54.0430    -4.2220    21.5100 O.co2        1 NAP281  -1.0000
    49 H5B1        48.2593    -0.2049    21.0765 H            1 NAP281   0.0000
    50 H5B2        47.3153    -1.0102    20.0149 H            1 NAP281   0.0000
    51 H4B         49.0588    -1.6648    18.8454 H            1 NAP281   0.0000
    52 H3B         49.7721    -2.7820    21.2985 H            1 NAP281   0.0000
    53 H5          50.2841    -3.5168    18.6364 H            1 NAP281   0.0000
    54 H2B         51.8463    -1.9660    21.3577 H            1 NAP281   0.0000
    55 H1B         51.6888    -1.2024    18.6127 H            1 NAP281   0.0000
    56 H8A         52.7808    -0.0638    22.0308 H            1 NAP281   0.0000
    57 H6A1        56.8377     3.4725    19.2014 H            1 NAP281   0.0000
    58 H6A2        56.2158     2.8636    20.6989 H            1 NAP281   0.0000
    59 H2A         54.2700     1.5451    15.9662 H            1 NAP281   0.0000
    60 H5D1        44.6958     1.5860    20.6863 H            1 NAP281   0.0000
    61 H5D2        45.9669     1.8129    21.6861 H            1 NAP281   0.0000
    62 H4D         44.9737     3.9092    21.3578 H            1 NAP281   0.0000
    63 H3D         45.2691     2.8271    23.8120 H            1 NAP281   0.0000
    64 H16         46.1875     4.7960    23.0268 H            1 NAP281   0.0000
    65 H2D         43.0840     2.6436    24.3549 H            1 NAP281   0.0000
    66 H18         43.8752     4.3243    25.7198 H            1 NAP281   0.0000
    67 H1D         42.3542     4.8708    22.7061 H            1 NAP281   0.0000
    68 H2N         41.6999     1.3356    22.9288 H            1 NAP281   0.0000
    69 H7N1        40.3435    -1.8798    22.9811 H            1 NAP281   0.0000
    70 H7N2        41.3463    -0.5016    22.6728 H            1 NAP281   0.0000
    71 H4N         37.6054     1.8590    23.2672 H            1 NAP281   0.0000
    72 H5N         37.9215     4.2315    23.1758 H            1 NAP281   0.0000
    73 H6N         40.1302     5.1209    22.9600 H            1 NAP281   0.0000
@<TRIPOS>BOND
     1    1    2      ar
     2    1    3      ar
     3    1    4       1
     4    1   23       1
     5    4    5       1
     6    5    6       1
     7    6    7       1
     8    6    8       1
     9    7   12       1
    10    8    9       1
    11    8   10       1
    12   10   11       1
    13   10   12       1
    14   11   45       1
    15   12   13       1
    16   13   14       1
    17   13   22       1
    18   14   15       2
    19   15   16       1
    20   16   17      ar
    21   16   22      ar
    22   17   18       1
    23   17   19      ar
    24   19   20      ar
    25   20   21      ar
    26   21   22      ar
    27   23   24       1
    28   24   25      ar
    29   24   26      ar
    30   24   27       1
    31   27   28       1
    32   28   29       1
    33   29   30       1
    34   29   31       1
    35   30   35       1
    36   31   32       1
    37   31   33       1
    38   33   34       1
    39   33   35       1
    40   35   36       1
    41   36   37      ar
    42   36   44      ar
    43   37   38      ar
    44   38   39       1
    45   38   42      ar
    46   39   40       2
    47   39   41      am
    48   42   43      ar
    49   43   44      ar
    50   45   46      ar
    51   45   47      ar
    52   45   48      ar
    53   43   72       1
    54    5   49       1
    55    5   50       1
    56    6   51       1
    57    8   52       1
    58    9   53       1
    59   10   54       1
    60   12   55       1
    61   14   56       1
    62   18   57       1
    63   18   58       1
    64   20   59       1
    65   44   73       1
    66   28   60       1
    67   28   61       1
    68   29   62       1
    69   31   63       1
    70   32   64       1
    71   33   65       1
    72   34   66       1
    73   35   67       1
    74   37   68       1
    75   41   69       1
    76   41   70       1
    77   42   71       1
@<TRIPOS>SUBSTRUCTURE
     1 NAP281      1 GROUP             4 A     NAP     0 **** NAP A 281
