@<TRIPOS>MOLECULE
4aoa_IK2_1_ligand
   34    34     1     0     0
SMALL
NO_CHARGES


@<TRIPOS>ATOM
     1 N1          75.7570   101.6450    23.1830 N.ar         1 IK21435   1.0000
     2 C2          77.0700   101.4090    23.0520 C.ar         1 IK21435   0.0000
     3 C2A         78.0650   102.5730    23.0910 C.3          1 IK21435   0.0000
     4 C3          77.5190   100.1030    22.8770 C.ar         1 IK21435   0.0000
     5 O3          78.8500    99.8470    22.7320 O.3          1 IK21435   0.0000
     6 C4          76.6340    99.0310    22.8410 C.ar         1 IK21435   0.0000
     7 C4A         77.2810    97.6510    22.6440 C.3          1 IK21435   0.0000
     8 N4A         76.3440    96.5690    22.4010 N.3          1 IK21435   0.0000
     9 OX          77.1640    95.3640    22.3280 O.3          1 IK21435   0.0000
    10 C1'         76.7790    94.2990    21.4450 C.3          1 IK21435   0.0000
    11 C2'         77.2940    92.9460    21.9450 C.2          1 IK21435   0.0000
    12 O1'         76.6760    91.9330    21.5450 O.co2        1 IK21435   0.0000
    13 O2'         78.2900    92.9550    22.7130 O.co2        1 IK21435  -1.0000
    14 C5          75.2590    99.3230    22.9910 C.ar         1 IK21435   0.0000
    15 C6          74.8700   100.6590    23.1560 C.ar         1 IK21435   0.0000
    16 C5A         74.0920    98.3200    22.9780 C.3          1 IK21435   0.0000
    17 O4P         73.9200    97.6740    24.2440 O.3          1 IK21435   0.0000
    18 P           73.1430    96.2620    24.3370 P.3          1 IK21435   0.0000
    19 O1P         71.7850    96.4790    23.4850 O.co2        1 IK21435   0.0000
    20 O2P         74.0100    95.1820    23.5350 O.co2        1 IK21435  -1.0000
    21 O3P         72.8480    95.8600    25.7350 O.co2        1 IK21435  -1.0000
    22 H2A1        78.9943   102.2210    22.9792 H            1 IK21435   0.0000
    23 H2A2        77.8593   103.2123    22.3500 H            1 IK21435   0.0000
    24 H2A3        77.9909   103.0456    23.9692 H            1 IK21435   0.0000
    25 H4          79.1676    98.9071    22.6065 H            1 IK21435   0.0000
    26 H4A1        77.8029    97.4315    23.4683 H            1 IK21435   0.0000
    27 H4A2        77.9014    97.7070    21.8617 H            1 IK21435   0.0000
    28 H4A         75.6853    96.5003    23.1502 H            1 IK21435   0.0000
    29 H1'1        77.1581    94.4761    20.5367 H            1 IK21435   0.0000
    30 H1'2        75.7811    94.2670    21.3893 H            1 IK21435   0.0000
    31 H10         73.8987   100.8747    23.2560 H            1 IK21435   0.0000
    32 H5A1        74.2733    97.6239    22.2833 H            1 IK21435   0.0000
    33 H5A2        73.2501    98.8085    22.7487 H            1 IK21435   0.0000
    34 H13         75.4390   102.5854    23.3038 H            1 IK21435   0.0000
@<TRIPOS>BOND
     1    1    2      ar
     2    1   15      ar
     3    2    3       1
     4    2    4      ar
     5    4    5       1
     6    4    6      ar
     7    6    7       1
     8    6   14      ar
     9    7    8       1
    10    8    9       1
    11    9   10       1
    12   10   11       1
    13   11   12      ar
    14   11   13      ar
    15   14   15      ar
    16   14   16       1
    17   16   17       1
    18   17   18       1
    19   18   19      ar
    20   18   20      ar
    21   18   21      ar
    22    3   22       1
    23    3   23       1
    24    3   24       1
    25    5   25       1
    26    7   26       1
    27    7   27       1
    28    8   28       1
    29   10   29       1
    30   10   30       1
    31   16   33       1
    32   15   31       1
    33   16   32       1
    34    1   34       1
@<TRIPOS>SUBSTRUCTURE
     1 IK21435     1 GROUP             4 A     IK2     0 **** IK2 A1435
