@<TRIPOS>MOLECULE
3ziu_LSS_1_ligand
   57    59     1     0     0
SMALL
NO_CHARGES


@<TRIPOS>ATOM
     1 C1         -30.0880    10.7550    76.4260 C.2          1 LSS1638   0.0000
     2 N1         -23.8370     4.1270    82.3270 N.ar         1 LSS1638   0.0000
     3 O1         -29.7260    10.7730    77.6180 O.2          1 LSS1638   0.0000
     4 S1         -28.0570     9.4620    75.7740 S.o2         1 LSS1638   0.0000
     5 C2         -25.1310     3.7830    82.2340 C.ar         1 LSS1638   0.0000
     6 N2         -29.3780    10.1680    75.4440 N.am         1 LSS1638   0.0000
     7 O2         -28.5150     7.7470    81.2650 O.3          1 LSS1638   0.0000
     8 N3         -26.0120     4.4420    81.4570 N.ar         1 LSS1638   0.0000
     9 O3         -30.6640     6.7320    79.8640 O.3          1 LSS1638   0.0000
    10 C4         -25.6090     5.5020    80.7230 C.ar         1 LSS1638   0.0000
    11 N4         -31.4620    11.3460    74.5220 N.4          1 LSS1638   1.0000
    12 O4         -28.0010     5.9170    78.2800 O.3          1 LSS1638   0.0000
    13 C5         -24.2920     5.9140    80.7580 C.ar         1 LSS1638   0.0000
    14 O5         -28.2000     8.3810    76.8580 O.3          1 LSS1638   0.0000
    15 C6         -23.3430     5.1690    81.6150 C.ar         1 LSS1638   0.0000
    16 N6         -22.0260     5.5130    81.6820 N.pl3        1 LSS1638   0.0000
    17 C7         -33.8850    11.5790    76.4020 C.3          1 LSS1638   0.0000
    18 N7         -24.1740     6.9650    79.9170 N.2          1 LSS1638   0.0000
    19 C8         -25.4060     7.2250    79.3860 C.2          1 LSS1638   0.0000
    20 C9         -32.5790    10.7850    76.6600 C.3          1 LSS1638   0.0000
    21 N9         -26.2590     6.3060    79.8650 N.pl3        1 LSS1638   0.0000
    22 CA         -31.3520    11.4350    75.9720 C.3          1 LSS1638   0.0000
    23 C10        -35.0900    10.8050    76.9460 C.3          1 LSS1638   0.0000
    24 C11        -33.8280    12.9740    77.0560 C.3          1 LSS1638   0.0000
    25 O1A        -27.0690    10.3210    76.3900 O.2          1 LSS1638   0.0000
    26 C21        -27.6920     6.2090    79.6130 C.3          1 LSS1638   0.0000
    27 C22        -28.3550     7.5580    79.8730 C.3          1 LSS1638   0.0000
    28 C23        -29.6490     7.4010    79.0950 C.3          1 LSS1638   0.0000
    29 C24        -29.2380     6.5280    77.9080 C.3          1 LSS1638   0.0000
    30 C25        -29.0820     7.3080    76.6060 C.3          1 LSS1638   0.0000
    31 O2A        -27.5390     8.8470    74.5670 O.2          1 LSS1638   0.0000
    32 H1         -25.4561     3.0013    82.7662 H            1 LSS1638   0.0000
    33 H2         -29.7113    10.1923    74.5015 H            1 LSS1638   0.0000
    34 H3         -28.4723     8.7236    81.4759 H            1 LSS1638   0.0000
    35 H4         -30.6005     5.7455    79.7131 H            1 LSS1638   0.0000
    36 H5         -32.3023    11.7983    74.2231 H            1 LSS1638   0.0000
    37 H6         -30.6739    11.7940    74.0998 H            1 LSS1638   0.0000
    38 H7         -21.6833     6.2858    81.1478 H            1 LSS1638   0.0000
    39 H8         -21.4024     4.9927    82.2654 H            1 LSS1638   0.0000
    40 H9         -33.9988    11.6938    75.4152 H            1 LSS1638   0.0000
    41 H10        -25.6315     7.9666    78.7542 H            1 LSS1638   0.0000
    42 H11        -32.6917     9.8564    76.3066 H            1 LSS1638   0.0000
    43 H12        -32.4137    10.7488    77.6456 H            1 LSS1638   0.0000
    44 HA         -31.3102    12.3994    76.2330 H            1 LSS1638   0.0000
    45 H14        -35.9260    11.3261    76.7742 H            1 LSS1638   0.0000
    46 H15        -35.1503     9.9177    76.4887 H            1 LSS1638   0.0000
    47 H16        -34.9802    10.6660    77.9302 H            1 LSS1638   0.0000
    48 H17        -34.6813    13.4626    76.8739 H            1 LSS1638   0.0000
    49 H18        -33.7051    12.8745    78.0434 H            1 LSS1638   0.0000
    50 H19        -33.0607    13.4897    76.6749 H            1 LSS1638   0.0000
    51 H20        -28.0931     5.5155    80.2115 H            1 LSS1638   0.0000
    52 H21        -27.8038     8.2961    79.4839 H            1 LSS1638   0.0000
    53 H22        -29.9781     8.2907    78.7786 H            1 LSS1638   0.0000
    54 H23        -29.9258     5.8139    77.7775 H            1 LSS1638   0.0000
    55 H24        -28.7037     6.7146    75.8956 H            1 LSS1638   0.0000
    56 H25        -29.9703     7.6585    76.3093 H            1 LSS1638   0.0000
    57 H26        -31.4853    10.3846    74.2479 H            1 LSS1638   0.0000
@<TRIPOS>BOND
     1    1    3       2
     2    1    6      am
     3    1   22       1
     4    2    5      ar
     5    2   15      ar
     6    4    6       1
     7    4   14       1
     8    4   25       2
     9    4   31       2
    10    5    8      ar
    11    7   27       1
    12    8   10      ar
    13    9   28       1
    14   10   13      ar
    15   10   21       1
    16   11   22       1
    17   12   26       1
    18   12   29       1
    19   13   15      ar
    20   13   18       1
    21   14   30       1
    22   15   16       1
    23   17   20       1
    24   17   23       1
    25   17   24       1
    26   18   19       2
    27   19   21       1
    28   20   22       1
    29   21   26       1
    30   26   27       1
    31   27   28       1
    32   28   29       1
    33   29   30       1
    34    5   32       1
    35    6   33       1
    36    7   34       1
    37    9   35       1
    38   11   36       1
    39   11   37       1
    40   16   38       1
    41   16   39       1
    42   17   40       1
    43   19   41       1
    44   20   42       1
    45   20   43       1
    46   22   44       1
    47   23   45       1
    48   23   46       1
    49   23   47       1
    50   24   48       1
    51   24   49       1
    52   24   50       1
    53   26   51       1
    54   27   52       1
    55   28   53       1
    56   29   54       1
    57   30   55       1
    58   30   56       1
    59   11   57       1
@<TRIPOS>SUBSTRUCTURE
     1 LSS1638     1 GROUP             4 A     LSS     0 **** LSS A1638
