@<TRIPOS>MOLECULE
4l16_ADP_1_ligand
   40    42     1     0     0
SMALL
NO_CHARGES


@<TRIPOS>ATOM
     1 PB           1.0720    34.0770     2.2890 P.3          1 ADP601   0.0000
     2 O1B          0.0360    33.8870     3.3960 O.co2        1 ADP601   0.0000
     3 O2B          0.5170    34.3260     0.9020 O.co2        1 ADP601  -1.0000
     4 O3B          2.2080    33.0590     2.3160 O.co2        1 ADP601  -1.0000
     5 PA           2.2780    36.1810     3.9570 P.3          1 ADP601   0.0000
     6 O1A          1.2350    37.2150     4.4440 O.co2        1 ADP601   0.0000
     7 O2A          2.7810    35.0650     4.8620 O.co2        1 ADP601  -1.0000
     8 O3A          1.7340    35.5410     2.5590 O.3          1 ADP601   0.0000
     9 O5'          3.6150    36.9280     3.4140 O.3          1 ADP601   0.0000
    10 C5'          4.5320    37.4960     4.3410 C.3          1 ADP601   0.0000
    11 C4'          5.5050    38.4350     3.6510 C.3          1 ADP601   0.0000
    12 O4'          4.9100    39.0850     2.5240 O.3          1 ADP601   0.0000
    13 C3'          5.9440    39.5140     4.6320 C.3          1 ADP601   0.0000
    14 O3'          7.3020    39.2670     5.0390 O.3          1 ADP601   0.0000
    15 C2'          5.8250    40.8340     3.8840 C.3          1 ADP601   0.0000
    16 O2'          7.0700    41.5560     3.8350 O.3          1 ADP601   0.0000
    17 C1'          5.3530    40.4530     2.4850 C.3          1 ADP601   0.0000
    18 N9           4.2530    41.3670     2.0560 N.pl3        1 ADP601   0.0000
    19 C8           3.9100    42.5720     2.5840 C.2          1 ADP601   0.0000
    20 N7           2.8590    43.1330     1.9220 N.2          1 ADP601   1.0000
    21 C5           2.5160    42.2770     0.9340 C.ar         1 ADP601   0.0000
    22 C6           1.4940    42.2270    -0.1500 C.ar         1 ADP601   0.0000
    23 N6           0.5960    43.2270    -0.3250 N.pl3        1 ADP601   0.0000
    24 N1           1.4890    41.1340    -0.9660 N.ar         1 ADP601   0.0000
    25 C2           2.3840    40.1270    -0.8160 C.ar         1 ADP601   0.0000
    26 N3           3.3310    40.0860     0.1450 N.ar         1 ADP601   0.0000
    27 C4           3.4420    41.1190     1.0250 C.ar         1 ADP601   0.0000
    28 H5'1         5.0465    36.7607     4.7821 H            1 ADP601   0.0000
    29 H5'2         4.0214    38.0069     5.0326 H            1 ADP601   0.0000
    30 H4'          6.3057    37.9175     3.3491 H            1 ADP601   0.0000
    31 H3'          5.3419    39.5169     5.4304 H            1 ADP601   0.0000
    32 H5           7.8730    40.0482     4.7865 H            1 ADP601   0.0000
    33 H2'          5.1300    41.4024     4.3244 H            1 ADP601   0.0000
    34 H7           6.9570    42.4458     4.2772 H            1 ADP601   0.0000
    35 H1'          6.1175    40.5340     1.8455 H            1 ADP601   0.0000
    36 H9           4.3725    42.9951     3.3631 H            1 ADP601   0.0000
    37 H10         -0.0796    43.1693    -1.0600 H            1 ADP601   0.0000
    38 H11          0.6091    44.0225     0.2808 H            1 ADP601   0.0000
    39 H12          2.3397    39.3635    -1.4603 H            1 ADP601   0.0000
    40 H13          2.4248    44.0100     2.1279 H            1 ADP601   0.0000
@<TRIPOS>BOND
     1    1    2      ar
     2    1    3      ar
     3    1    4      ar
     4    1    8       1
     5    5    6      ar
     6    5    7      ar
     7    5    8       1
     8    5    9       1
     9    9   10       1
    10   10   11       1
    11   11   12       1
    12   11   13       1
    13   12   17       1
    14   13   14       1
    15   13   15       1
    16   15   16       1
    17   15   17       1
    18   17   18       1
    19   18   19       1
    20   18   27       1
    21   19   20       2
    22   20   21       1
    23   21   22      ar
    24   21   27      ar
    25   22   23       1
    26   22   24      ar
    27   24   25      ar
    28   25   26      ar
    29   26   27      ar
    30   25   39       1
    31   23   38       1
    32   23   37       1
    33   10   28       1
    34   10   29       1
    35   11   30       1
    36   13   31       1
    37   14   32       1
    38   15   33       1
    39   16   34       1
    40   17   35       1
    41   19   36       1
    42   20   40       1
@<TRIPOS>SUBSTRUCTURE
     1 ADP601      1 GROUP             4 A     ADP     0 **** ADP A 601
