@<TRIPOS>MOLECULE
1dkf_BMS_1_ligand
   57    61     1     0     0
SMALL
NO_CHARGES


@<TRIPOS>ATOM
     1 C5         -20.8010    80.9800     1.6000 C.ar         1 BMS600   0.0000
     2 C6         -20.6830    79.8690     2.5640 C.ar         1 BMS600   0.0000
     3 C7         -21.2310    78.5490     2.2790 C.ar         1 BMS600   0.0000
     4 C2         -21.9290    78.2640     1.0030 C.ar         1 BMS600   0.0000
     5 C3         -22.0590    79.3960     0.0140 C.ar         1 BMS600   0.0000
     6 C4         -21.4860    80.7380     0.3320 C.ar         1 BMS600   0.0000
     7 C1         -22.4750    76.8750     0.7720 C.2          1 BMS600   0.0000
     8 O1         -23.2700    76.6500    -0.2670 O.co2        1 BMS600   0.0000
     9 O2         -22.1170    75.9310     1.6330 O.co2        1 BMS600  -1.0000
    10 N1         -20.2690    82.2240     1.9010 N.am         1 BMS600   0.0000
    11 C8         -18.9210    82.4760     2.1780 C.2          1 BMS600   0.0000
    12 C9         -18.4270    83.7530     1.8290 C.ar         1 BMS600   0.0000
    13 C10        -19.2960    84.7650     1.2250 C.ar         1 BMS600   0.0000
    14 C11        -18.7300    86.1160     0.8550 C.ar         1 BMS600   0.0000
    15 C12        -17.2330    86.4050     1.1210 C.ar         1 BMS600   0.0000
    16 C13        -16.3960    85.3350     1.7470 C.ar         1 BMS600   0.0000
    17 C14        -16.9710    84.0600     2.0880 C.ar         1 BMS600   0.0000
    18 O3         -18.1280    81.6230     2.7080 O.2          1 BMS600   0.0000
    19 C15        -19.5660    87.2630     0.2100 C.2          1 BMS600   0.0000
    20 C16        -18.9370    88.3650    -0.4320 C.2          1 BMS600   0.0000
    21 C17        -17.4470    88.4840    -0.5240 C.3          1 BMS600   0.0000
    22 C18        -16.6670    87.8190     0.7180 C.3          1 BMS600   0.0000
    23 C19        -16.8140    88.7880     1.9260 C.3          1 BMS600   0.0000
    24 C20        -15.1860    87.7190     0.2480 C.3          1 BMS600   0.0000
    25 C21        -20.9640    87.2990     0.2130 C.ar         1 BMS600   0.0000
    26 C22        -21.6010    87.3870     1.5910 C.ar         1 BMS600   0.0000
    27 N2         -22.9850    87.4320     1.7790 N.ar         1 BMS600   0.0000
    28 C23        -23.8660    87.3890     0.6790 C.ar         1 BMS600   0.0000
    29 C24        -23.2350    87.3030    -0.8040 C.ar         1 BMS600   0.0000
    30 C25        -21.8230    87.2590    -0.9880 C.ar         1 BMS600   0.0000
    31 C26        -25.3040    87.4380     0.8760 C.ar         1 BMS600   0.0000
    32 C27        -26.1650    87.3960    -0.3480 C.ar         1 BMS600   0.0000
    33 C28        -25.5490    87.3130    -1.7790 C.ar         1 BMS600   0.0000
    34 C29        -24.0630    87.2650    -1.9710 C.ar         1 BMS600   0.0000
    35 H1         -20.2156    80.0257     3.4341 H            1 BMS600   0.0000
    36 H2         -21.1341    77.8211     2.9578 H            1 BMS600   0.0000
    37 H3         -22.5296    79.2475    -0.8558 H            1 BMS600   0.0000
    38 H4         -21.5722    81.4810    -0.3317 H            1 BMS600   0.0000
    39 H5         -20.8974    83.0016     1.9218 H            1 BMS600   0.0000
    40 H6         -20.2609    84.5625     1.0580 H            1 BMS600   0.0000
    41 H7         -15.4281    85.5069     1.9303 H            1 BMS600   0.0000
    42 H8         -16.3921    83.3603     2.5067 H            1 BMS600   0.0000
    43 H9         -19.5066    89.0819    -0.8340 H            1 BMS600   0.0000
    44 H10        -17.2095    89.4546    -0.5629 H            1 BMS600   0.0000
    45 H11        -17.1455    88.0332    -1.3642 H            1 BMS600   0.0000
    46 H12        -16.4564    89.6880     1.6768 H            1 BMS600   0.0000
    47 H13        -17.7798    88.8696     2.1723 H            1 BMS600   0.0000
    48 H14        -16.3004    88.4293     2.7054 H            1 BMS600   0.0000
    49 H15        -14.8532    88.6285    -0.0010 H            1 BMS600   0.0000
    50 H16        -14.6252    87.3502     0.9893 H            1 BMS600   0.0000
    51 H17        -15.1284    87.1140    -0.5462 H            1 BMS600   0.0000
    52 H18        -21.0061    87.4137     2.3943 H            1 BMS600   0.0000
    53 H19        -21.4250    87.2027    -1.9036 H            1 BMS600   0.0000
    54 H20        -25.7025    87.4973     1.7912 H            1 BMS600   0.0000
    55 H21        -27.1594    87.4218    -0.2459 H            1 BMS600   0.0000
    56 H22        -26.1518    87.2916    -2.5766 H            1 BMS600   0.0000
    57 H23        -23.6628    87.2082    -2.8857 H            1 BMS600   0.0000
@<TRIPOS>BOND
     1    1    2      ar
     2    1    6      ar
     3    1   10       1
     4    2    3      ar
     5    3    4      ar
     6    4    5      ar
     7    4    7       1
     8    5    6      ar
     9    7    8      ar
    10    7    9      ar
    11   10   11      am
    12   11   12       1
    13   11   18       2
    14   12   13      ar
    15   12   17      ar
    16   13   14      ar
    17   14   15      ar
    18   14   19       1
    19   15   16      ar
    20   15   22       1
    21   16   17      ar
    22   19   20       2
    23   19   25       1
    24   20   21       1
    25   21   22       1
    26   22   23       1
    27   22   24       1
    28   25   26      ar
    29   25   30      ar
    30   26   27      ar
    31   27   28      ar
    32   28   29      ar
    33   28   31      ar
    34   29   30      ar
    35   29   34      ar
    36   31   32      ar
    37   32   33      ar
    38   33   34      ar
    39    2   35       1
    40    3   36       1
    41    5   37       1
    42    6   38       1
    43   34   57       1
    44   10   39       1
    45   13   40       1
    46   16   41       1
    47   17   42       1
    48   20   43       1
    49   21   44       1
    50   21   45       1
    51   23   46       1
    52   23   47       1
    53   23   48       1
    54   24   49       1
    55   24   50       1
    56   24   51       1
    57   26   52       1
    58   30   53       1
    59   31   54       1
    60   32   55       1
    61   33   56       1
@<TRIPOS>SUBSTRUCTURE
     1 BMS600      1 GROUP             4 B     BMS     0 **** BMS B 600
