@<TRIPOS>MOLECULE
3vxj_3DM_1_ligand
   21    21     1     0     0
SMALL
NO_CHARGES


@<TRIPOS>ATOM
     1 O1          -3.6130     7.1830    27.1040 O.3          1 3DM503   0.0000
     2 C1          -4.6840     7.6550    27.8320 C.ar         1 3DM503   0.0000
     3 C2          -5.8890     6.9460    27.8960 C.ar         1 3DM503   0.0000
     4 O2          -5.9970     5.7630    27.2100 O.3          1 3DM503   0.0000
     5 C7          -7.3160     5.2480    26.9690 C.3          1 3DM503   0.0000
     6 C3          -6.9430     7.4670    28.6600 C.ar         1 3DM503   0.0000
     7 C4          -6.8030     8.6890    29.3250 C.ar         1 3DM503   0.0000
     8 C5          -5.6020     9.3880    29.2650 C.ar         1 3DM503   0.0000
     9 C6          -4.5470     8.8700    28.5130 C.ar         1 3DM503   0.0000
    10 O3          -3.3450     9.5130    28.4100 O.3          1 3DM503   0.0000
    11 C8          -3.2940    10.9010    28.8350 C.3          1 3DM503   0.0000
    12 H1          -2.7611     7.7057    27.0718 H            1 3DM503   0.0000
    13 H2          -7.2507     4.3876    26.4636 H            1 3DM503   0.0000
    14 H3          -7.7759     5.0875    27.8423 H            1 3DM503   0.0000
    15 H4          -7.8397     5.9104    26.4333 H            1 3DM503   0.0000
    16 H5          -7.8023     6.9602    28.7299 H            1 3DM503   0.0000
    17 H6          -7.5703     9.0623    29.8464 H            1 3DM503   0.0000
    18 H7          -5.4957    10.2528    29.7557 H            1 3DM503   0.0000
    19 H8          -2.3667    11.2539    28.7104 H            1 3DM503   0.0000
    20 H9          -3.9327    11.4411    28.2869 H            1 3DM503   0.0000
    21 H10         -3.5475    10.9636    29.8003 H            1 3DM503   0.0000
@<TRIPOS>BOND
     1    1    2       1
     2    2    3      ar
     3    2    9      ar
     4    3    4       1
     5    3    6      ar
     6    4    5       1
     7    6    7      ar
     8    7    8      ar
     9    8    9      ar
    10    9   10       1
    11   10   11       1
    12    1   12       1
    13    5   13       1
    14    5   14       1
    15    5   15       1
    16    6   16       1
    17    7   17       1
    18    8   18       1
    19   11   19       1
    20   11   20       1
    21   11   21       1
@<TRIPOS>SUBSTRUCTURE
     1 3DM503      1 GROUP             4 A     3DM     0 **** 3DM A 503
