@<TRIPOS>MOLECULE
3dh0_SAM_1_ligand
   50    52     1     0     0
SMALL
NO_CHARGES


@<TRIPOS>ATOM
     1 N           27.4300     4.3930    29.2240 N.4          1 SAM220   1.0000
     2 CA          26.7430     3.8180    30.4210 C.3          1 SAM220   0.0000
     3 C           27.3720     4.3380    31.6930 C.2          1 SAM220   0.0000
     4 O           28.3210     5.1180    31.6050 O.co2        1 SAM220   0.0000
     5 OXT         26.8520     3.9140    32.7760 O.co2        1 SAM220  -1.0000
     6 CB          26.8380     2.2960    30.3880 C.3          1 SAM220   0.0000
     7 CG          26.5340     1.8220    29.0250 C.3          1 SAM220   0.0000
     8 SD          26.5650     0.0510    28.6350 S.3          1 SAM220   1.0000
     9 CE          28.3150    -0.3350    28.7060 C.3          1 SAM220   0.0000
    10 C5'         26.1600     0.0980    26.9530 C.3          1 SAM220   0.0000
    11 C4'         24.7090     0.3910    26.6320 C.3          1 SAM220   0.0000
    12 O4'         24.6640     0.4490    25.2110 O.3          1 SAM220   0.0000
    13 C3'         23.7660    -0.7870    26.9460 C.3          1 SAM220   0.0000
    14 O3'         22.9320    -0.3150    28.0430 O.3          1 SAM220   0.0000
    15 C2'         22.8960    -0.9710    25.7180 C.3          1 SAM220   0.0000
    16 O2'         21.5050    -1.1490    25.8810 O.3          1 SAM220   0.0000
    17 C1'         23.3690     0.2240    24.8330 C.3          1 SAM220   0.0000
    18 N9          23.4090     0.0190    23.3980 N.pl3        1 SAM220   0.0000
    19 C8          23.8940    -1.0400    22.6570 C.2          1 SAM220   0.0000
    20 N7          23.7780    -0.8650    21.3780 N.2          1 SAM220   0.0000
    21 C5          23.1770     0.3870    21.2540 C.ar         1 SAM220   0.0000
    22 C6          22.7870     1.1640    20.1250 C.ar         1 SAM220   0.0000
    23 N6          22.9660     0.7250    18.8600 N.pl3        1 SAM220   0.0000
    24 N1          22.2040     2.4050    20.3480 N.ar         1 SAM220   0.0000
    25 C2          22.0420     2.8050    21.6320 C.ar         1 SAM220   0.0000
    26 N3          22.3750     2.1550    22.7520 N.ar         1 SAM220   0.0000
    27 C4          22.9440     0.9450    22.4930 C.ar         1 SAM220   0.0000
    28 H1          28.1863     3.7965    28.9552 H            1 SAM220   0.0000
    29 H2          26.7785     4.4662    28.4689 H            1 SAM220   0.0000
    30 HA          25.7793     4.0843    30.4022 H            1 SAM220   0.0000
    31 HB1         26.1806     1.9056    31.0325 H            1 SAM220   0.0000
    32 HB2         27.7627     2.0128    30.6424 H            1 SAM220   0.0000
    33 HG1         27.1945     2.2607    28.4156 H            1 SAM220   0.0000
    34 HG2         25.6134     2.1466    28.8079 H            1 SAM220   0.0000
    35 HE1         28.4510    -1.3047    28.5031 H            1 SAM220   0.0000
    36 HE2         28.8060     0.2184    28.0331 H            1 SAM220   0.0000
    37 HE3         28.6638    -0.1339    29.6213 H            1 SAM220   0.0000
    38 H5'1        26.3880    -0.7917    26.5576 H            1 SAM220   0.0000
    39 H5'2        26.7186     0.8071    26.5227 H            1 SAM220   0.0000
    40 H4'         24.3969     1.2432    27.0520 H            1 SAM220   0.0000
    41 H3'         24.2668    -1.6195    27.1828 H            1 SAM220   0.0000
    42 H15         22.4261     0.4969    27.7516 H            1 SAM220   0.0000
    43 H2'         23.2289    -1.7983    25.2654 H            1 SAM220   0.0000
    44 H17         21.1186    -0.3506    26.3429 H            1 SAM220   0.0000
    45 H1'         22.8161     1.0313    25.0394 H            1 SAM220   0.0000
    46 H19         24.2946    -1.8599    23.0660 H            1 SAM220   0.0000
    47 H20         22.6816     1.2939    18.0884 H            1 SAM220   0.0000
    48 H21         23.3829    -0.1689    18.6952 H            1 SAM220   0.0000
    49 H22         21.6188     3.7021    21.7586 H            1 SAM220   0.0000
    50 H23         27.7847     5.3009    29.4474 H            1 SAM220   0.0000
@<TRIPOS>BOND
     1    1    2       1
     2    2    3       1
     3    2    6       1
     4    3    4      ar
     5    3    5      ar
     6    6    7       1
     7    7    8       1
     8    8    9       1
     9    8   10       1
    10   10   11       1
    11   11   12       1
    12   11   13       1
    13   12   17       1
    14   13   14       1
    15   13   15       1
    16   15   16       1
    17   15   17       1
    18   17   18       1
    19   18   19       1
    20   18   27       1
    21   19   20       2
    22   20   21       1
    23   21   22      ar
    24   21   27      ar
    25   22   23       1
    26   22   24      ar
    27   24   25      ar
    28   25   26      ar
    29   26   27      ar
    30    1   28       1
    31    1   29       1
    32    2   30       1
    33    1   50       1
    34    6   31       1
    35    6   32       1
    36    7   33       1
    37    7   34       1
    38    9   35       1
    39    9   36       1
    40    9   37       1
    41   10   38       1
    42   10   39       1
    43   11   40       1
    44   13   41       1
    45   14   42       1
    46   15   43       1
    47   16   44       1
    48   17   45       1
    49   19   46       1
    50   23   47       1
    51   23   48       1
    52   25   49       1
@<TRIPOS>SUBSTRUCTURE
     1 SAM220      1 GROUP             4 A     SAM     0 **** SAM A 220
