@<TRIPOS>MOLECULE
2bhi_SFT_1_ligand
  154   154     1     0     0
SMALL
NO_CHARGES


@<TRIPOS>ATOM
     1 C42         42.6740    -0.6060    30.8070 C.3          1 SFT1061   0.0000
     2 C32         42.2200    -1.5430    31.9280 C.3          1 SFT1061   0.0000
     3 C22         42.9260    -1.1700    33.2320 C.3          1 SFT1061   0.0000
     4 CCA         42.6260    -2.1510    34.3680 C.3          1 SFT1061   0.0000
     5 C02         43.5180    -1.7960    35.5610 C.3          1 SFT1061   0.0000
     6 C91         43.4300    -2.7810    36.7310 C.3          1 SFT1061   0.0000
     7 C81         42.1310    -2.6670    37.5330 C.3          1 SFT1061   0.0000
     8 C71         40.9670    -3.3920    36.8540 C.3          1 SFT1061   0.0000
     9 C61         39.6800    -3.2720    37.6720 C.3          1 SFT1061   0.0000
    10 C51         39.0030    -1.9150    37.4700 C.3          1 SFT1061   0.0000
    11 C41         37.7440    -1.8150    38.3350 C.3          1 SFT1061   0.0000
    12 C31         36.9240    -0.5590    38.0280 C.3          1 SFT1061   0.0000
    13 C21         36.2580    -0.6060    36.6490 C.3          1 SFT1061   0.0000
    14 CBA         37.2550    -0.5270    35.4900 C.3          1 SFT1061   0.0000
    15 C01         36.5540    -0.8460    34.1670 C.3          1 SFT1061   0.0000
    16 C9'         37.5250    -0.8600    32.9830 C.3          1 SFT1061   0.0000
    17 C8'         37.7450     0.5290    32.3770 C.3          1 SFT1061   0.0000
    18 C7'         38.8160     0.5100    31.2810 C.3          1 SFT1061   0.0000
    19 C6'         38.4640    -0.4080    30.1060 C.3          1 SFT1061   0.0000
    20 C5'         37.3490     0.1440    29.2120 C.3          1 SFT1061   0.0000
    21 C4'         37.8440     1.1360    28.1560 C.3          1 SFT1061   0.0000
    22 C3'         38.8710     0.5010    27.2150 C.3          1 SFT1061   0.0000
    23 C2'         38.9510     1.2360    25.8720 C.3          1 SFT1061   0.0000
    24 O2'         39.1150     2.6440    26.0710 O.3          1 SFT1061   0.0000
    25 C1'         40.1050     0.6740    25.0480 C.2          1 SFT1061   0.0000
    26 O1'         41.0190     1.4040    24.6420 O.2          1 SFT1061   0.0000
    27 N1          40.0360    -0.6370    24.8170 N.am         1 SFT1061   0.0000
    28 C2          41.0180    -1.4080    24.0420 C.3          1 SFT1061   0.0000
    29 C1          40.7200    -1.2760    22.5450 C.3          1 SFT1061   0.0000
    30 O1          39.5630    -2.0520    22.1990 O.3          1 SFT1061   0.0000
    31 C1B         39.0110    -1.6850    20.9260 C.3          1 SFT1061   0.0000
    32 C2B         38.1070    -0.4580    21.0650 C.3          1 SFT1061   0.0000
    33 O2B         37.0510    -0.7420    21.9830 O.3          1 SFT1061   0.0000
    34 O5'         40.0080    -1.4650    19.9160 O.3          1 SFT1061   0.0000
    35 C5B         39.4430    -1.2420    18.6140 C.3          1 SFT1061   0.0000
    36 C6B         40.5330    -1.0360    17.5590 C.3          1 SFT1061   0.0000
    37 O6'         41.3430    -2.2060    17.4260 O.3          1 SFT1061   0.0000
    38 C4B         38.5790     0.0180    18.6390 C.3          1 SFT1061   0.0000
    39 O4'         39.4250     1.1460    18.8660 O.3          1 SFT1061   0.0000
    40 C3B         37.5010    -0.0450    19.7230 C.3          1 SFT1061   0.0000
    41 O3'         36.9060     1.2540    19.8260 O.3          1 SFT1061   0.0000
    42 S           35.5570     1.2700    20.3040 S.o2         1 SFT1061   0.0000
    43 O3S         34.7180     1.9580    19.3700 O.co2        1 SFT1061   0.0000
    44 O1S         35.0320    -0.0550    20.7680 O.co2        1 SFT1061   0.0000
    45 O2S         35.5770     2.1390    21.5250 O.co2        1 SFT1061  -1.0000
    46 C3          42.4740    -1.0320    24.3430 C.3          1 SFT1061   0.0000
    47 O2          43.3120    -1.9410    23.6230 O.3          1 SFT1061   0.0000
    48 C4          42.7610    -1.1280    25.8460 C.2          1 SFT1061   0.0000
    49 C5          44.0550    -1.0320    26.3520 C.2          1 SFT1061   0.0000
    50 C6          44.2770    -1.1190    27.7230 C.3          1 SFT1061   0.0000
    51 C7          45.6420    -1.6860    28.1330 C.3          1 SFT1061   0.0000
    52 C8          46.8210    -0.8040    27.7070 C.3          1 SFT1061   0.0000
    53 C9          47.9310    -0.7110    28.7600 C.3          1 SFT1061   0.0000
    54 C10         48.7170    -2.0040    28.9970 C.3          1 SFT1061   0.0000
    55 C11         49.8070    -1.7530    30.0430 C.3          1 SFT1061   0.0000
    56 C12         50.7240    -2.9660    30.2230 C.3          1 SFT1061   0.0000
    57 C13         51.8900    -2.7080    31.1830 C.3          1 SFT1061   0.0000
    58 C14         51.4700    -2.6030    32.6520 C.3          1 SFT1061   0.0000
    59 C15         50.9130    -1.2290    33.0330 C.3          1 SFT1061   0.0000
    60 C16         52.0120    -0.1620    33.0310 C.3          1 SFT1061   0.0000
    61 C17         51.4940     1.2090    33.4730 C.3          1 SFT1061   0.0000
    62 C18         51.0380     1.2010    34.9340 C.3          1 SFT1061   0.0000
    63 H1          42.2097    -0.8540    29.9568 H            1 SFT1061   0.0000
    64 H2          42.4462     0.3373    31.0483 H            1 SFT1061   0.0000
    65 H3          43.6628    -0.6889    30.6832 H            1 SFT1061   0.0000
    66 H4          42.4476    -2.4860    31.6852 H            1 SFT1061   0.0000
    67 H5          41.2310    -1.4597    32.0503 H            1 SFT1061   0.0000
    68 H6          42.6247    -0.2577    33.5093 H            1 SFT1061   0.0000
    69 H7          43.9127    -1.1602    33.0700 H            1 SFT1061   0.0000
    70 HCA1        42.8195    -3.0850    34.0677 H            1 SFT1061   0.0000
    71 HCA2        41.6642    -2.0783    34.6319 H            1 SFT1061   0.0000
    72 H10         43.2512    -0.8912    35.8929 H            1 SFT1061   0.0000
    73 H11         44.4665    -1.7689    35.2454 H            1 SFT1061   0.0000
    74 H12         44.1982    -2.6087    37.3476 H            1 SFT1061   0.0000
    75 H13         43.4964    -3.7102    36.3674 H            1 SFT1061   0.0000
    76 H14         41.8958    -1.6998    37.6293 H            1 SFT1061   0.0000
    77 H15         42.2753    -3.0667    38.4382 H            1 SFT1061   0.0000
    78 H16         41.2001    -4.3594    36.7545 H            1 SFT1061   0.0000
    79 H17         40.8166    -2.9907    35.9505 H            1 SFT1061   0.0000
    80 H18         39.9009    -3.3825    38.6410 H            1 SFT1061   0.0000
    81 H19         39.0484    -3.9941    37.3896 H            1 SFT1061   0.0000
    82 H20         38.7511    -1.8121    36.5077 H            1 SFT1061   0.0000
    83 H21         39.6389    -1.1875    37.7277 H            1 SFT1061   0.0000
    84 H22         38.0161    -1.7938    39.2970 H            1 SFT1061   0.0000
    85 H23         37.1743    -2.6196    38.1673 H            1 SFT1061   0.0000
    86 H24         37.5309     0.2350    38.0626 H            1 SFT1061   0.0000
    87 H25         36.2118    -0.4647    38.7236 H            1 SFT1061   0.0000
    88 H26         35.6252     0.1649    36.5760 H            1 SFT1061   0.0000
    89 H27         35.7492    -1.4634    36.5717 H            1 SFT1061   0.0000
    90 HBA1        37.9907    -1.1871    35.6416 H            1 SFT1061   0.0000
    91 HBA2        37.6386     0.3955    35.4465 H            1 SFT1061   0.0000
    92 H30         35.8527    -0.1531    33.9995 H            1 SFT1061   0.0000
    93 H31         36.1232    -1.7455    34.2401 H            1 SFT1061   0.0000
    94 H9'1        37.1564    -1.4624    32.2750 H            1 SFT1061   0.0000
    95 H9'2        38.4058    -1.2145    33.2968 H            1 SFT1061   0.0000
    96 H8'1        38.0339     1.1556    33.1008 H            1 SFT1061   0.0000
    97 H8'2        36.8840     0.8498    31.9824 H            1 SFT1061   0.0000
    98 H7'1        39.6760     0.1956    31.6829 H            1 SFT1061   0.0000
    99 H7'2        38.9311     1.4406    30.9334 H            1 SFT1061   0.0000
   100 H6'1        38.1689    -1.2908    30.4714 H            1 SFT1061   0.0000
   101 H6'2        39.2836    -0.5356    29.5474 H            1 SFT1061   0.0000
   102 H5'1        36.6793     0.6078    29.7920 H            1 SFT1061   0.0000
   103 H5'2        36.9102    -0.6231    28.7440 H            1 SFT1061   0.0000
   104 H4'1        38.2669     1.9157    28.6177 H            1 SFT1061   0.0000
   105 H4'2        37.0629     1.4513    27.6170 H            1 SFT1061   0.0000
   106 H3'1        38.6109    -0.4500    27.0476 H            1 SFT1061   0.0000
   107 H3'2        39.7699     0.5287    27.6522 H            1 SFT1061   0.0000
   108 H2'         38.0983     1.0818    25.3730 H            1 SFT1061   0.0000
   109 H47         40.0897     2.8633    26.1137 H            1 SFT1061   0.0000
   110 H48         39.2570    -1.1334    25.2001 H            1 SFT1061   0.0000
   111 H49         40.9016    -2.3708    24.2860 H            1 SFT1061   0.0000
   112 H50         41.5063    -1.6042    22.0216 H            1 SFT1061   0.0000
   113 H51         40.5509    -0.3152    22.3254 H            1 SFT1061   0.0000
   114 H1B         38.4378    -2.4448    20.6190 H            1 SFT1061   0.0000
   115 H2B         38.6488     0.3029    21.4220 H            1 SFT1061   0.0000
   116 H54         36.8342    -1.7177    21.9502 H            1 SFT1061   0.0000
   117 H5B         38.8781    -2.0267    18.3586 H            1 SFT1061   0.0000
   118 H6B1        41.1112    -0.2670    17.8317 H            1 SFT1061   0.0000
   119 H6B2        40.1028    -0.8341    16.6791 H            1 SFT1061   0.0000
   120 H6'         40.7706    -2.9781    17.1498 H            1 SFT1061   0.0000
   121 H4B         38.1352     0.1220    17.7489 H            1 SFT1061   0.0000
   122 H4'         39.3490     1.7799    18.0963 H            1 SFT1061   0.0000
   123 H3B         36.8023    -0.7090    19.4569 H            1 SFT1061   0.0000
   124 H62         42.6486    -0.0986    24.0295 H            1 SFT1061   0.0000
   125 H63         44.2714    -1.7209    23.7994 H            1 SFT1061   0.0000
   126 H64         41.9992    -1.2631    26.4796 H            1 SFT1061   0.0000
   127 H65         44.8260    -0.9003    25.7289 H            1 SFT1061   0.0000
   128 H66         43.5686    -1.7069    28.1137 H            1 SFT1061   0.0000
   129 H67         44.1966    -0.1994    28.1077 H            1 SFT1061   0.0000
   130 H68         45.7509    -2.5861    27.7111 H            1 SFT1061   0.0000
   131 H69         45.6600    -1.7800    29.1284 H            1 SFT1061   0.0000
   132 H70         46.4774     0.1179    27.5278 H            1 SFT1061   0.0000
   133 H71         47.2121    -1.1828    26.8682 H            1 SFT1061   0.0000
   134 H72         47.5127    -0.4402    29.6270 H            1 SFT1061   0.0000
   135 H73         48.5768    -0.0060    28.4669 H            1 SFT1061   0.0000
   136 H74         49.1390    -2.2997    28.1399 H            1 SFT1061   0.0000
   137 H75         48.0966    -2.7159    29.3261 H            1 SFT1061   0.0000
   138 H76         49.3715    -1.5454    30.9189 H            1 SFT1061   0.0000
   139 H77         50.3593    -0.9718    29.7519 H            1 SFT1061   0.0000
   140 H78         51.0978    -3.2165    29.3299 H            1 SFT1061   0.0000
   141 H79         50.1799    -3.7247    30.5813 H            1 SFT1061   0.0000
   142 H80         52.3316    -1.8504    30.9193 H            1 SFT1061   0.0000
   143 H81         52.5432    -3.4601    31.0949 H            1 SFT1061   0.0000
   144 H82         52.2691    -2.7898    33.2235 H            1 SFT1061   0.0000
   145 H83         50.7654    -3.2901    32.8293 H            1 SFT1061   0.0000
   146 H84         50.5125    -1.2822    33.9478 H            1 SFT1061   0.0000
   147 H85         50.2065    -0.9700    32.3744 H            1 SFT1061   0.0000
   148 H86         52.3811    -0.0827    32.1050 H            1 SFT1061   0.0000
   149 H87         52.7384    -0.4478    33.6561 H            1 SFT1061   0.0000
   150 H88         50.7199     1.4646    32.8938 H            1 SFT1061   0.0000
   151 H89         52.2264     1.8814    33.3663 H            1 SFT1061   0.0000
   152 H90         50.7075     2.1108    35.1850 H            1 SFT1061   0.0000
   153 H91         50.3010     0.5350    35.0495 H            1 SFT1061   0.0000
   154 H92         51.8075     0.9519    35.5220 H            1 SFT1061   0.0000
@<TRIPOS>BOND
     1    1    2       1
     2    2    3       1
     3    3    4       1
     4    4    5       1
     5    5    6       1
     6    6    7       1
     7    7    8       1
     8    8    9       1
     9    9   10       1
    10   10   11       1
    11   11   12       1
    12   12   13       1
    13   13   14       1
    14   14   15       1
    15   15   16       1
    16   16   17       1
    17   17   18       1
    18   18   19       1
    19   19   20       1
    20   20   21       1
    21   21   22       1
    22   22   23       1
    23   23   24       1
    24   23   25       1
    25   25   26       2
    26   25   27      am
    27   27   28       1
    28   28   29       1
    29   28   46       1
    30   29   30       1
    31   30   31       1
    32   31   32       1
    33   31   34       1
    34   32   33       1
    35   32   40       1
    36   34   35       1
    37   35   36       1
    38   35   38       1
    39   36   37       1
    40   38   39       1
    41   38   40       1
    42   40   41       1
    43   41   42       1
    44   42   43      ar
    45   42   44      ar
    46   42   45      ar
    47   46   47       1
    48   46   48       1
    49   48   49       2
    50   49   50       1
    51   50   51       1
    52   51   52       1
    53   52   53       1
    54   53   54       1
    55   54   55       1
    56   55   56       1
    57   56   57       1
    58   57   58       1
    59   58   59       1
    60   59   60       1
    61   60   61       1
    62   61   62       1
    63    1   63       1
    64    1   64       1
    65    1   65       1
    66    2   66       1
    67    2   67       1
    68    3   68       1
    69    3   69       1
    70    4   70       1
    71    4   71       1
    72    5   72       1
    73    5   73       1
    74    6   74       1
    75    6   75       1
    76    7   76       1
    77    7   77       1
    78    8   78       1
    79    8   79       1
    80    9   80       1
    81    9   81       1
    82   10   82       1
    83   10   83       1
    84   11   84       1
    85   11   85       1
    86   12   86       1
    87   12   87       1
    88   13   88       1
    89   13   89       1
    90   14   90       1
    91   14   91       1
    92   15   92       1
    93   15   93       1
    94   16   94       1
    95   16   95       1
    96   17   96       1
    97   17   97       1
    98   18   98       1
    99   18   99       1
   100   19  100       1
   101   19  101       1
   102   20  102       1
   103   20  103       1
   104   21  104       1
   105   21  105       1
   106   22  106       1
   107   22  107       1
   108   23  108       1
   109   24  109       1
   110   27  110       1
   111   28  111       1
   112   29  112       1
   113   29  113       1
   114   31  114       1
   115   32  115       1
   116   33  116       1
   117   35  117       1
   118   36  118       1
   119   36  119       1
   120   37  120       1
   121   38  121       1
   122   39  122       1
   123   40  123       1
   124   62  154       1
   125   46  124       1
   126   47  125       1
   127   48  126       1
   128   49  127       1
   129   50  128       1
   130   50  129       1
   131   51  130       1
   132   51  131       1
   133   52  132       1
   134   52  133       1
   135   53  134       1
   136   53  135       1
   137   54  136       1
   138   54  137       1
   139   55  138       1
   140   55  139       1
   141   56  140       1
   142   56  141       1
   143   57  142       1
   144   57  143       1
   145   58  144       1
   146   58  145       1
   147   59  146       1
   148   59  147       1
   149   60  148       1
   150   60  149       1
   151   61  150       1
   152   61  151       1
   153   62  152       1
   154   62  153       1
@<TRIPOS>SUBSTRUCTURE
     1 SFT1061     1 GROUP             4 A     SFT     0 **** SFT A1061
