@<TRIPOS>MOLECULE
./coach420/5gal/ligand.pdb
 26 27 0 0 0
SMALL
GASTEIGER

@<TRIPOS>ATOM
      1  C1         0.8320   36.4340   35.5880 C.3   998  NAG998      0.2917
      2  C2         1.7610   36.4220   36.7920 C.3   998  NAG998      0.1870
      3  C3         2.1280   37.8650   37.2000 C.3   998  NAG998      0.2063
      4  C4         2.5800   38.7150   35.9840 C.3   998  NAG998      0.1796
      5  C5         1.6290   38.5170   34.7810 C.3   998  NAG998      0.1803
      6  C6         2.1350   39.1520   33.5040 C.3   998  NAG998      0.2141
      7  C7         1.2060   34.3990   37.9580 C.2   998  NAG998      0.2420
      8  C8         0.4850   33.7320   39.1190 C.3   998  NAG998      0.0964
      9  N2         1.1000   35.7250   37.8820 N.am  998  NAG998     -0.1991
     10  O1        -0.3270   37.1370   35.9060 O.3   998  NAG998     -0.1879
     11  O3         3.1790   37.8120   38.1540 O.3   998  NAG998     -0.2184
     12  O4         2.5840   40.1130   36.3530 O.3   998  NAG998     -0.3258
     13  O5         1.4670   37.1190   34.5050 O.3   998  NAG998     -0.3243
     14  O6         3.3180   38.5020   33.0710 O.3   998  NAG998     -0.2176
     15  O7         1.8760   33.7200   37.1490 O.2   998  NAG998     -0.2733
     16  C1         3.7100   40.8440   36.0010 C.3   999  GAL999      0.2695
     17  C2         3.4900   42.3290   36.3520 C.3   999  GAL999      0.2406
     18  C3         4.7790   43.1670   36.2080 C.3   999  GAL999      0.2198
     19  C4         5.9430   42.4860   36.9250 C.3   999  GAL999      0.2144
     20  C5         6.0420   40.9990   36.4840 C.3   999  GAL999      0.1835
     21  C6         7.1360   40.1880   37.1580 C.3   999  GAL999      0.2142
     22  O2         2.4790   42.8820   35.5220 O.3   999  GAL999     -0.2149
     23  O3         4.5700   44.4460   36.7960 O.3   999  GAL999     -0.2174
     24  O4         5.7210   42.5700   38.3350 O.3   999  GAL999     -0.2176
     25  O5         4.8010   40.3120   36.7520 O.3   999  GAL999     -0.3256
     26  O6         6.9370   38.7930   36.9610 O.3   999  GAL999     -0.2176
@<TRIPOS>BOND
     1     1    13    1
     2     1    10    1
     3     1     2    1
     4     2     3    1
     5     2     9    1
     6     3     4    1
     7     3    11    1
     8     4     5    1
     9     4    12    1
    10     5     6    1
    11     5    13    1
    12     6    14    1
    13     7    15    2
    14     7     9   am
    15     7     8    1
    16    12    16    1
    17    16    17    1
    18    16    25    1
    19    17    22    1
    20    17    18    1
    21    18    23    1
    22    18    19    1
    23    19    20    1
    24    19    24    1
    25    20    25    1
    26    20    21    1
    27    21    26    1
