@<TRIPOS>MOLECULE
7ins_CRS_1_ligand
   16    16     1     0     0
SMALL
NO_CHARGES


@<TRIPOS>ATOM
     1 C1          33.5790    29.9790    12.2200 C.ar         1 CRS22    0.0000
     2 C2          32.6260    30.9970    12.1700 C.ar         1 CRS22    0.0000
     3 C3          31.8530    31.1800    10.9950 C.ar         1 CRS22    0.0000
     4 C4          32.1320    30.3430     9.9250 C.ar         1 CRS22    0.0000
     5 C5          33.0280    29.2800     9.9570 C.ar         1 CRS22    0.0000
     6 C6          33.7690    29.1530    11.1220 C.ar         1 CRS22    0.0000
     7 C7          30.8170    32.2360    10.9510 C.3          1 CRS22    0.0000
     8 O1          34.5630    29.9220    13.3680 O.3          1 CRS22    0.0000
     9 H1          32.4886    31.5952    12.9595 H            1 CRS22    0.0000
    10 H2          31.6524    30.5171     9.0650 H            1 CRS22    0.0000
    11 H3          33.1313    28.6478     9.1891 H            1 CRS22    0.0000
    12 H4          34.4670    28.4387    11.1726 H            1 CRS22    0.0000
    13 H5          30.3703    32.2276    10.0564 H            1 CRS22    0.0000
    14 H6          30.1373    32.0661    11.6646 H            1 CRS22    0.0000
    15 H7          31.2434    33.1278    11.1023 H            1 CRS22    0.0000
    16 H8          35.2465    29.1929    13.4050 H            1 CRS22    0.0000
@<TRIPOS>BOND
     1    1    2      ar
     2    1    6      ar
     3    1    8       1
     4    2    3      ar
     5    3    4      ar
     6    3    7       1
     7    4    5      ar
     8    5    6      ar
     9    2    9       1
    10    4   10       1
    11    5   11       1
    12    6   12       1
    13    7   13       1
    14    7   14       1
    15    7   15       1
    16    8   16       1
@<TRIPOS>SUBSTRUCTURE
     1 CRS22       1 GROUP             4 A     CRS     0 **** CRS A  22
