@<TRIPOS>MOLECULE
4cnk_FAD_2_ligand
   84    89     1     0     0
SMALL
NO_CHARGES


@<TRIPOS>ATOM
     1 PA          -7.4090    32.8390   -14.5040 P.3          1 FAD1392   0.0000
     2 O1A         -8.6100    33.5290   -13.9370 O.co2        1 FAD1392   0.0000
     3 O2A         -6.2020    33.6270   -14.8710 O.co2        1 FAD1392  -1.0000
     4 O5B         -7.7730    31.9480   -15.8100 O.3          1 FAD1392   0.0000
     5 C5B         -8.9940    31.2190   -15.8580 C.3          1 FAD1392   0.0000
     6 C4B         -9.2880    30.9540   -17.3310 C.3          1 FAD1392   0.0000
     7 O4B        -10.3110    29.9470   -17.3400 O.3          1 FAD1392   0.0000
     8 C3B         -9.8190    32.2090   -18.0420 C.3          1 FAD1392   0.0000
     9 O3B         -9.1060    32.3640   -19.2670 O.3          1 FAD1392   0.0000
    10 C2B        -11.2580    31.8350   -18.2970 C.3          1 FAD1392   0.0000
    11 O2B        -11.8080    32.4150   -19.4970 O.3          1 FAD1392   0.0000
    12 C1B        -11.2060    30.2940   -18.3710 C.3          1 FAD1392   0.0000
    13 N9A        -12.5410    29.6970   -18.1920 N.pl3        1 FAD1392   0.0000
    14 C8A        -13.3900    29.9720   -17.1850 C.2          1 FAD1392   0.0000
    15 N7A        -14.5590    29.3000   -17.3220 N.2          1 FAD1392   0.0000
    16 C5A        -14.4460    28.5870   -18.4710 C.ar         1 FAD1392   0.0000
    17 C6A        -15.3070    27.6520   -19.2140 C.ar         1 FAD1392   0.0000
    18 N6A        -16.5320    27.3760   -18.7240 N.pl3        1 FAD1392   0.0000
    19 N1A        -14.8230    27.0660   -20.3550 N.ar         1 FAD1392   0.0000
    20 C2A        -13.5750    27.3550   -20.8270 C.ar         1 FAD1392   0.0000
    21 N3A        -12.7440    28.2250   -20.1950 N.ar         1 FAD1392   0.0000
    22 C4A        -13.1200    28.8460   -19.0440 C.ar         1 FAD1392   0.0000
    23 N1          -1.7600    38.0690    -8.8620 N.2          1 FAD1392   0.0000
    24 C2          -0.4810    38.1840    -8.4430 C.2          1 FAD1392   0.0000
    25 O2           0.0900    37.1490    -7.9880 O.2          1 FAD1392   0.0000
    26 N3           0.1710    39.3660    -8.5420 N.pl3        1 FAD1392   0.0000
    27 C4          -0.3950    40.4630    -9.0790 C.2          1 FAD1392   0.0000
    28 O4           0.2130    41.5420    -9.1650 O.2          1 FAD1392   0.0000
    29 C4X         -1.7920    40.4040    -9.5260 C.2          1 FAD1392   0.0000
    30 N5          -2.4430    41.4680   -10.0700 N.2          1 FAD1392   0.0000
    31 C5X         -3.7270    41.3700   -10.4950 C.ar         1 FAD1392   0.0000
    32 C6          -4.3820    42.4870   -11.0290 C.ar         1 FAD1392   0.0000
    33 C7          -5.7090    42.3750   -11.4520 C.ar         1 FAD1392   0.0000
    34 C7M         -6.3780    43.5950   -12.0550 C.3          1 FAD1392   0.0000
    35 C8          -6.4220    41.0680   -11.3340 C.ar         1 FAD1392   0.0000
    36 C8M         -7.8610    40.8860   -11.7700 C.3          1 FAD1392   0.0000
    37 C9          -5.7640    39.9540   -10.7930 C.ar         1 FAD1392   0.0000
    38 C9A         -4.4490    40.0630   -10.3640 C.ar         1 FAD1392   0.0000
    39 N10         -3.7720    38.9520    -9.8010 N.pl3        1 FAD1392   0.0000
    40 C10         -2.4460    39.1030    -9.3880 C.2          1 FAD1392   0.0000
    41 C1'         -4.4320    37.6370    -9.6310 C.3          1 FAD1392   0.0000
    42 C2'         -4.0470    36.6900   -10.7610 C.3          1 FAD1392   0.0000
    43 O2'         -4.2730    37.3460   -11.9910 O.3          1 FAD1392   0.0000
    44 C3'         -4.9060    35.4380   -10.6590 C.3          1 FAD1392   0.0000
    45 O3'         -4.8140    34.9060    -9.3200 O.3          1 FAD1392   0.0000
    46 C4'         -4.4510    34.3840   -11.6540 C.3          1 FAD1392   0.0000
    47 O4'         -4.5030    34.8820   -12.9970 O.3          1 FAD1392   0.0000
    48 C5'         -5.3020    33.1290   -11.5080 C.3          1 FAD1392   0.0000
    49 O5'         -4.8300    32.1930   -12.4870 O.3          1 FAD1392   0.0000
    50 P           -5.7880    30.9970   -12.9790 P.3          1 FAD1392   0.0000
    51 O1P         -6.1380    30.1710   -11.8020 O.co2        1 FAD1392   0.0000
    52 O2P         -5.0680    30.3410   -14.1240 O.co2        1 FAD1392  -1.0000
    53 O3P         -7.1400    31.6950   -13.4380 O.3          1 FAD1392   0.0000
    54 H5B1        -9.7324    31.7561   -15.4503 H            1 FAD1392   0.0000
    55 H5B2        -8.8990    30.3545   -15.3645 H            1 FAD1392   0.0000
    56 H4B         -8.4672    30.6169   -17.7920 H            1 FAD1392   0.0000
    57 H3B         -9.7442    33.0218   -17.4643 H            1 FAD1392   0.0000
    58 H5          -9.5859    31.8759   -19.9960 H            1 FAD1392   0.0000
    59 H2B        -11.8144    32.1093   -17.5127 H            1 FAD1392   0.0000
    60 H7         -11.2780    32.1095   -20.2881 H            1 FAD1392   0.0000
    61 H1B        -10.8278    30.0127   -19.2529 H            1 FAD1392   0.0000
    62 H8A        -13.1842    30.5944   -16.4299 H            1 FAD1392   0.0000
    63 H6A1       -17.1346    26.7440   -19.2112 H            1 FAD1392   0.0000
    64 H6A2       -16.8382    27.8033   -17.8733 H            1 FAD1392   0.0000
    65 H2A        -13.2616    26.9113   -21.6666 H            1 FAD1392   0.0000
    66 H13          1.1098    39.4267    -8.2030 H            1 FAD1392   0.0000
    67 H14         -3.9020    43.3608   -11.1072 H            1 FAD1392   0.0000
    68 H7M1        -7.3180    43.3680   -12.3096 H            1 FAD1392   0.0000
    69 H7M2        -6.3841    44.3372   -11.3849 H            1 FAD1392   0.0000
    70 H7M3        -5.8730    43.8843   -12.8682 H            1 FAD1392   0.0000
    71 H8M1        -8.1421    39.9406   -11.6054 H            1 FAD1392   0.0000
    72 H8M2        -8.4483    41.5042   -11.2476 H            1 FAD1392   0.0000
    73 H8M3        -7.9427    41.0931   -12.7449 H            1 FAD1392   0.0000
    74 H21         -6.2433    39.0797   -10.7163 H            1 FAD1392   0.0000
    75 H1'1        -5.4238    37.7649    -9.6336 H            1 FAD1392   0.0000
    76 H1'2        -4.1496    37.2385    -8.7584 H            1 FAD1392   0.0000
    77 H2'         -3.0809    36.4443   -10.6816 H            1 FAD1392   0.0000
    78 H25         -4.5054    36.6708   -12.6911 H            1 FAD1392   0.0000
    79 H3'         -5.8577    35.6784   -10.8502 H            1 FAD1392   0.0000
    80 H27         -5.6677    34.4402    -9.0870 H            1 FAD1392   0.0000
    81 H4'         -3.5026    34.1452   -11.4452 H            1 FAD1392   0.0000
    82 H29         -5.1257    34.3169   -13.5382 H            1 FAD1392   0.0000
    83 H5'1        -6.2644    33.3444   -11.6733 H            1 FAD1392   0.0000
    84 H5'2        -5.1988    32.7479   -10.5893 H            1 FAD1392   0.0000
@<TRIPOS>BOND
     1    1    2      ar
     2    1    3      ar
     3    1    4       1
     4    1   53       1
     5    4    5       1
     6    5    6       1
     7    6    7       1
     8    6    8       1
     9    7   12       1
    10    8    9       1
    11    8   10       1
    12   10   11       1
    13   10   12       1
    14   12   13       1
    15   13   14       1
    16   13   22       1
    17   14   15       2
    18   15   16       1
    19   16   17      ar
    20   16   22      ar
    21   17   18       1
    22   17   19      ar
    23   19   20      ar
    24   20   21      ar
    25   21   22      ar
    26   23   24       1
    27   23   40       2
    28   24   25       2
    29   24   26       1
    30   26   27       1
    31   27   28       2
    32   27   29       1
    33   29   30       2
    34   29   40       1
    35   30   31       1
    36   31   32      ar
    37   31   38      ar
    38   32   33      ar
    39   33   34       1
    40   33   35      ar
    41   35   36       1
    42   35   37      ar
    43   37   38      ar
    44   38   39       1
    45   39   40       1
    46   39   41       1
    47   41   42       1
    48   42   43       1
    49   42   44       1
    50   44   45       1
    51   44   46       1
    52   46   47       1
    53   46   48       1
    54   48   49       1
    55   49   50       1
    56   50   51      ar
    57   50   52      ar
    58   50   53       1
    59   48   84       1
    60    5   54       1
    61    5   55       1
    62    6   56       1
    63    8   57       1
    64    9   58       1
    65   10   59       1
    66   11   60       1
    67   12   61       1
    68   14   62       1
    69   18   63       1
    70   18   64       1
    71   20   65       1
    72   26   66       1
    73   32   67       1
    74   34   68       1
    75   34   69       1
    76   34   70       1
    77   36   71       1
    78   36   72       1
    79   36   73       1
    80   37   74       1
    81   41   75       1
    82   41   76       1
    83   42   77       1
    84   43   78       1
    85   44   79       1
    86   45   80       1
    87   46   81       1
    88   47   82       1
    89   48   83       1
@<TRIPOS>SUBSTRUCTURE
     1 FAD1392     1 GROUP             4 B     FAD     0 **** FAD B1392
