@<TRIPOS>MOLECULE
2jih_097_1_ligand
   51    50     1     0     0
SMALL
NO_CHARGES


@<TRIPOS>ATOM
     1 N1           7.4840   -11.3390    11.8170 N.am         1 0971001   0.0000
     2 C2          11.6710   -12.7010    14.0670 C.3          1 0971001   0.0000
     3 O2           6.0960   -11.6160    14.1910 O.2          1 0971001   0.0000
     4 C4           8.7140   -11.0260    11.3290 C.2          1 0971001   0.0000
     5 O3          13.1680   -13.5470     8.1130 O.3          1 0971001  -1.0000
     6 C5           6.5490   -10.2990    12.2980 C.3          1 0971001   0.0000
     7 C6           5.3030   -10.2470    11.3790 C.3          1 0971001   0.0000
     8 C8           4.7110   -11.6460    11.1130 C.3          1 0971001   0.0000
     9 C9           4.1990    -9.3760    11.9970 C.3          1 0971001   0.0000
    10 C10          6.1400   -10.5030    13.7310 C.2          1 0971001   0.0000
    11 C11          5.3910    -9.2540    15.8310 C.3          1 0971001   0.0000
    12 N3          12.3090   -12.5790     8.6840 N.am         1 0971001   0.0000
    13 C12         10.9710   -12.7900     8.8020 C.2          1 0971001   0.0000
    14 O4          10.4580   -13.8360     8.4050 O.2          1 0971001   0.0000
    15 C13         10.1570   -11.6830     9.4420 C.3          1 0971001   0.0000
    16 O5           9.0550   -11.3100     8.6170 O.3          1 0971001   0.0000
    17 C14          9.6270   -12.1140    10.8130 C.3          1 0971001   0.0000
    18 C15         10.8040   -12.3020    11.7760 C.3          1 0971001   0.0000
    19 C1          10.3980   -12.7290    13.1960 C.3          1 0971001   0.0000
    20 C3           9.7470   -14.1160    13.1700 C.3          1 0971001   0.0000
    21 O1           9.1060    -9.8780    11.2990 O.2          1 0971001   0.0000
    22 C7           5.6930    -9.6070    10.0350 C.3          1 0971001   0.0000
    23 N2           5.8330    -9.3780    14.4320 N.am         1 0971001   0.0000
    24 H1           7.2041   -12.2984    11.8516 H            1 0971001   0.0000
    25 H2          11.4418   -12.9747    15.0011 H            1 0971001   0.0000
    26 H3          12.3467   -13.3347    13.6903 H            1 0971001   0.0000
    27 H4          12.0497   -11.7755    14.0742 H            1 0971001   0.0000
    28 H5           7.0138    -9.4159    12.2346 H            1 0971001   0.0000
    29 H6           3.9120   -11.5621    10.5176 H            1 0971001   0.0000
    30 H7           5.3989   -12.2201    10.6688 H            1 0971001   0.0000
    31 H8           4.4383   -12.0629    11.9801 H            1 0971001   0.0000
    32 H9           3.4073    -9.3584    11.3863 H            1 0971001   0.0000
    33 H10          3.9295    -9.7573    12.8813 H            1 0971001   0.0000
    34 H11          4.5415    -8.4453    12.1257 H            1 0971001   0.0000
    35 H12          5.2456    -8.2893    16.0504 H            1 0971001   0.0000
    36 H13          4.5357    -9.7569    15.9562 H            1 0971001   0.0000
    37 H14          6.0914    -9.6317    16.4366 H            1 0971001   0.0000
    38 H15         12.6962   -11.7164     9.0096 H            1 0971001   0.0000
    39 H16         10.7467   -10.8849     9.5653 H            1 0971001   0.0000
    40 H17          8.4610   -12.1020     8.4761 H            1 0971001   0.0000
    41 H18          9.1189   -12.9709    10.7265 H            1 0971001   0.0000
    42 H19         11.2985   -11.4351    11.8391 H            1 0971001   0.0000
    43 H20         11.4083   -13.0038    11.3987 H            1 0971001   0.0000
    44 H21          9.7410   -12.0682    13.5589 H            1 0971001   0.0000
    45 H22          8.9284   -14.0893    12.5963 H            1 0971001   0.0000
    46 H23         10.3940   -14.7810    12.7969 H            1 0971001   0.0000
    47 H24          9.4938   -14.3828    14.0999 H            1 0971001   0.0000
    48 H25          4.8916    -9.5711     9.4379 H            1 0971001   0.0000
    49 H26          6.0325    -8.6798    10.1934 H            1 0971001   0.0000
    50 H27          6.4083   -10.1542     9.6004 H            1 0971001   0.0000
    51 H28          5.9193    -8.5183    13.9285 H            1 0971001   0.0000
@<TRIPOS>BOND
     1    1    4      am
     2    1    6       1
     3    2   19       1
     4    3   10       2
     5    4   17       1
     6    4   21       2
     7    5   12       1
     8    6    7       1
     9    6   10       1
    10    7    8       1
    11    7    9       1
    12    7   22       1
    13   10   23      am
    14   11   23       1
    15   12   13      am
    16   13   14       2
    17   13   15       1
    18   15   16       1
    19   15   17       1
    20   17   18       1
    21   18   19       1
    22   19   20       1
    23    1   24       1
    24    2   25       1
    25    2   26       1
    26    2   27       1
    27   23   51       1
    28    6   28       1
    29    8   29       1
    30    8   30       1
    31    8   31       1
    32    9   32       1
    33    9   33       1
    34    9   34       1
    35   11   35       1
    36   11   36       1
    37   11   37       1
    38   12   38       1
    39   15   39       1
    40   16   40       1
    41   17   41       1
    42   18   42       1
    43   18   43       1
    44   19   44       1
    45   20   45       1
    46   20   46       1
    47   20   47       1
    48   22   48       1
    49   22   49       1
    50   22   50       1
@<TRIPOS>SUBSTRUCTURE
     1 0971001     1 GROUP             4 A     097     0 **** 097 A1001
