@<TRIPOS>MOLECULE
1mdu_ATP_2_ligand
   43    45     1     0     0
SMALL
NO_CHARGES


@<TRIPOS>ATOM
     1 PG          11.2440    35.8840    56.3060 P.3          1 ATP400   0.0000
     2 O1G         11.1000    37.1110    57.1040 O.co2        1 ATP400   0.0000
     3 O2G          9.9780    35.1220    56.1350 O.co2        1 ATP400  -1.0000
     4 O3G         11.8960    36.1870    54.9960 O.co2        1 ATP400  -1.0000
     5 PB          13.8500    34.9300    57.0290 P.3          1 ATP400   0.0000
     6 O1B         14.4940    34.3490    58.1800 O.co2        1 ATP400   0.0000
     7 O2B         14.5740    35.7410    56.1010 O.co2        1 ATP400  -1.0000
     8 O3B         12.2680    34.9580    57.0820 O.3          1 ATP400   0.0000
     9 PA          15.2050    32.8440    55.4510 P.3          1 ATP400   0.0000
    10 O1A         15.0750    32.7190    54.0390 O.co2        1 ATP400   0.0000
    11 O2A         16.4990    32.5970    56.1270 O.co2        1 ATP400  -1.0000
    12 O3A         14.0200    33.4260    56.3220 O.3          1 ATP400   0.0000
    13 O5'         14.5580    31.4920    55.4650 O.3          1 ATP400   0.0000
    14 C5'         14.0530    30.4340    56.0800 C.3          1 ATP400   0.0000
    15 C4'         13.0550    29.3200    56.0100 C.3          1 ATP400   0.0000
    16 O4'         13.3200    28.4040    54.9270 O.3          1 ATP400   0.0000
    17 C3'         13.1460    28.6190    57.3400 C.3          1 ATP400   0.0000
    18 O3'         11.8470    28.5090    57.9280 O.3          1 ATP400   0.0000
    19 C2'         13.7550    27.2680    57.0190 C.3          1 ATP400   0.0000
    20 O2'         13.1260    26.2080    57.7420 O.3          1 ATP400   0.0000
    21 C1'         13.5990    27.1130    55.5020 C.3          1 ATP400   0.0000
    22 N9          14.6490    26.3830    54.8270 N.pl3        1 ATP400   0.0000
    23 C8          16.0280    26.5150    54.8220 C.2          1 ATP400   0.0000
    24 N7          16.6180    25.6270    54.0910 N.2          1 ATP400   0.0000
    25 C5          15.5570    24.8780    53.5970 C.ar         1 ATP400   0.0000
    26 C6          15.4840    23.7410    52.7450 C.ar         1 ATP400   0.0000
    27 N6          16.5730    23.1950    52.2440 N.pl3        1 ATP400   0.0000
    28 N1          14.2270    23.2010    52.4270 N.ar         1 ATP400   0.0000
    29 C2          13.1090    23.7510    52.9290 C.ar         1 ATP400   0.0000
    30 N3          13.0570    24.8220    53.7450 N.ar         1 ATP400   0.0000
    31 C4          14.3680    25.3350    54.0410 C.ar         1 ATP400   0.0000
    32 H5'1        13.7765    30.8556    56.9436 H            1 ATP400   0.0000
    33 H5'2        14.8893    29.9041    56.2205 H            1 ATP400   0.0000
    34 H4'         12.1382    29.7041    55.9010 H            1 ATP400   0.0000
    35 H3'         13.7527    29.1279    57.9507 H            1 ATP400   0.0000
    36 H5          11.6682    29.3136    58.4942 H            1 ATP400   0.0000
    37 H2'         14.7285    27.2861    57.2470 H            1 ATP400   0.0000
    38 H7          13.7890    25.4778    57.9071 H            1 ATP400   0.0000
    39 H1'         12.7675    26.5734    55.3700 H            1 ATP400   0.0000
    40 H9          16.5164    27.2237    55.3311 H            1 ATP400   0.0000
    41 H10         16.5024    22.3960    51.6468 H            1 ATP400   0.0000
    42 H11         17.4703    23.5795    52.4608 H            1 ATP400   0.0000
    43 H12         12.2390    23.3285    52.6748 H            1 ATP400   0.0000
@<TRIPOS>BOND
     1    1    2      ar
     2    1    3      ar
     3    1    4      ar
     4    1    8       1
     5    5    6      ar
     6    5    7      ar
     7    5    8       1
     8    5   12       1
     9    9   10      ar
    10    9   11      ar
    11    9   12       1
    12    9   13       1
    13   13   14       1
    14   14   15       1
    15   15   16       1
    16   15   17       1
    17   16   21       1
    18   17   18       1
    19   17   19       1
    20   19   20       1
    21   19   21       1
    22   21   22       1
    23   22   23       1
    24   22   31       1
    25   23   24       2
    26   24   25       1
    27   25   26      ar
    28   25   31      ar
    29   26   27       1
    30   26   28      ar
    31   28   29      ar
    32   29   30      ar
    33   30   31      ar
    34   29   43       1
    35   27   42       1
    36   27   41       1
    37   23   40       1
    38   14   32       1
    39   14   33       1
    40   15   34       1
    41   17   35       1
    42   18   36       1
    43   19   37       1
    44   20   38       1
    45   21   39       1
@<TRIPOS>SUBSTRUCTURE
     1 ATP400      1 GROUP             4 E     ATP     0 **** ATP E 400
