@<TRIPOS>MOLECULE
1zp8_AB2_1_ligand
   88    92     1     0     0
SMALL
NO_CHARGES


@<TRIPOS>ATOM
     1 C1          -6.6180    16.2430    18.1490 C.3          1 AB2200   0.0000
     2 O1          -7.7260    16.9060    18.7550 O.3          1 AB2200   0.0000
     3 C2          -7.9860    16.7020    20.0790 C.ar         1 AB2200   0.0000
     4 C3          -9.2780    16.8930    20.5620 C.ar         1 AB2200   0.0000
     5 C4          -9.5410    16.6050    21.9120 C.ar         1 AB2200   0.0000
     6 C5          -8.4990    16.2180    22.7200 C.ar         1 AB2200   0.0000
     7 C6          -7.1900    16.0850    22.2570 C.ar         1 AB2200   0.0000
     8 C7          -6.9320    16.3130    20.8980 C.ar         1 AB2200   0.0000
     9 S1          -8.8060    15.9020    24.4310 S.o2         1 AB2200   0.0000
    10 O2         -10.0130    15.1570    24.3620 O.2          1 AB2200   0.0000
    11 O3          -7.7790    15.0050    24.8740 O.2          1 AB2200   0.0000
    12 N1          -8.7070    17.4230    25.2580 N.3          1 AB2200   0.0000
    13 C8          -7.5030    18.0780    25.7230 C.3          1 AB2200   0.0000
    14 C9          -6.6320    17.5130    26.8540 C.3          1 AB2200   0.0000
    15 C10         -5.6470    16.4090    26.4390 C.3          1 AB2200   0.0000
    16 C11         -6.1870    18.4910    27.9380 C.3          1 AB2200   0.0000
    17 C12         -9.9590    17.9730    25.7980 C.3          1 AB2200   0.0000
    18 C13        -10.1640    17.8750    27.3440 C.3          1 AB2200   0.0000
    19 O4         -11.1500    18.7720    27.7640 O.3          1 AB2200   0.0000
    20 C14        -10.4920    16.3910    27.7450 C.3          1 AB2200   0.0000
    21 C15        -12.0240    16.0510    27.6220 C.3          1 AB2200   0.0000
    22 C16        -12.2110    14.5490    27.8500 C.ar         1 AB2200   0.0000
    23 C17        -12.0220    13.6720    26.7810 C.ar         1 AB2200   0.0000
    24 C18        -12.1380    12.3100    27.0340 C.ar         1 AB2200   0.0000
    25 C19        -12.5320    11.9070    28.3000 C.ar         1 AB2200   0.0000
    26 C20        -12.7670    12.7660    29.3630 C.ar         1 AB2200   0.0000
    27 C21        -12.5960    14.1330    29.1130 C.ar         1 AB2200   0.0000
    28 N2          -9.8940    16.0960    29.0470 N.pl3        1 AB2200   0.0000
    29 C22        -10.3870    16.2980    30.3090 C.2          1 AB2200   0.0000
    30 C23         -9.4170    15.8800    31.1970 C.2          1 AB2200   0.0000
    31 C24         -9.5350    15.8770    32.6900 C.3          1 AB2200   0.0000
    32 O5         -10.8310    15.3830    33.0040 O.3          1 AB2200   0.0000
    33 C25        -11.3870    15.3690    34.2310 C.2          1 AB2200   0.0000
    34 O6         -11.4670    16.4040    34.8580 O.2          1 AB2200   0.0000
    35 N3         -11.8160    14.1650    34.6740 N.am         1 AB2200   0.0000
    36 C26        -13.0490    13.4420    34.2430 C.3          1 AB2200   0.0000
    37 C27        -13.4450    13.6400    32.7520 C.3          1 AB2200   0.0000
    38 O7         -14.3200    14.7160    32.4260 O.3          1 AB2200   0.0000
    39 C28        -13.8900    12.2510    32.3170 C.3          1 AB2200   0.0000
    40 C29        -13.1720    11.2740    33.2550 C.ar         1 AB2200   0.0000
    41 C30        -12.9540     9.9030    33.1560 C.ar         1 AB2200   0.0000
    42 C31        -12.2610     9.2240    34.1640 C.ar         1 AB2200   0.0000
    43 C32        -11.7830     9.9360    35.2520 C.ar         1 AB2200   0.0000
    44 C33        -11.9580    11.3030    35.3210 C.ar         1 AB2200   0.0000
    45 C34        -12.6890    11.9760    34.3520 C.ar         1 AB2200   0.0000
    46 N4          -8.3910    15.3640    30.4700 N.2          1 AB2200   0.0000
    47 N5          -8.6660    15.5490    29.2180 N.2          1 AB2200   0.0000
    48 H1          -6.5654    16.4966    17.1831 H            1 AB2200   0.0000
    49 H2          -5.7738    16.5142    18.6113 H            1 AB2200   0.0000
    50 H3          -6.7380    15.2534    18.2277 H            1 AB2200   0.0000
    51 H4         -10.0034    17.2281    19.9608 H            1 AB2200   0.0000
    52 H5         -10.4687    16.6802    22.2777 H            1 AB2200   0.0000
    53 H6          -6.4509    15.8323    22.8814 H            1 AB2200   0.0000
    54 H7          -6.0108    16.1984    20.5261 H            1 AB2200   0.0000
    55 H8          -7.7822    18.9914    26.0193 H            1 AB2200   0.0000
    56 H9          -6.9046    18.1547    24.9255 H            1 AB2200   0.0000
    57 H10         -7.3091    16.9760    27.3572 H            1 AB2200   0.0000
    58 H11         -5.1283    16.1072    27.2389 H            1 AB2200   0.0000
    59 H12         -6.1541    15.6353    26.0592 H            1 AB2200   0.0000
    60 H13         -5.0176    16.7661    25.7488 H            1 AB2200   0.0000
    61 H14         -5.6295    18.0086    28.6137 H            1 AB2200   0.0000
    62 H15         -5.6483    19.2249    27.5241 H            1 AB2200   0.0000
    63 H16         -6.9916    18.8803    28.3864 H            1 AB2200   0.0000
    64 H17        -10.7159    17.4869    25.3613 H            1 AB2200   0.0000
    65 H18         -9.9964    18.9407    25.5488 H            1 AB2200   0.0000
    66 H19         -9.3046    18.1316    27.7863 H            1 AB2200   0.0000
    67 H20        -10.7272    19.6487    27.9934 H            1 AB2200   0.0000
    68 H21        -10.0210    15.8099    27.0813 H            1 AB2200   0.0000
    69 H22        -12.3513    16.2965    26.7095 H            1 AB2200   0.0000
    70 H23        -12.5389    16.5628    28.3097 H            1 AB2200   0.0000
    71 H24        -11.8104    14.0116    25.8646 H            1 AB2200   0.0000
    72 H25        -11.9420    11.6377    26.3201 H            1 AB2200   0.0000
    73 H26        -12.6556    10.9274    28.4582 H            1 AB2200   0.0000
    74 H27        -13.0443    12.4266    30.2618 H            1 AB2200   0.0000
    75 H28        -12.7505    14.8023    29.8397 H            1 AB2200   0.0000
    76 H29        -11.2822    16.6773    30.5429 H            1 AB2200   0.0000
    77 H30         -9.4262    16.8056    33.0449 H            1 AB2200   0.0000
    78 H31         -8.8356    15.2837    33.0885 H            1 AB2200   0.0000
    79 H32        -11.2483    13.7122    35.3616 H            1 AB2200   0.0000
    80 H33        -13.8166    13.6629    34.8447 H            1 AB2200   0.0000
    81 H34        -12.5920    13.8213    32.2626 H            1 AB2200   0.0000
    82 H35        -13.8624    15.3366    31.7892 H            1 AB2200   0.0000
    83 H36        -13.6255    12.0813    31.3677 H            1 AB2200   0.0000
    84 H37        -14.8814    12.1577    32.4086 H            1 AB2200   0.0000
    85 H38        -13.2942     9.4010    32.3609 H            1 AB2200   0.0000
    86 H39        -12.1126     8.2372    34.0999 H            1 AB2200   0.0000
    87 H40        -11.3089     9.4570    35.9908 H            1 AB2200   0.0000
    88 H41        -11.5531    11.8151    36.0785 H            1 AB2200   0.0000
@<TRIPOS>BOND
     1    1    2       1
     2    2    3       1
     3    3    4      ar
     4    3    8      ar
     5    4    5      ar
     6    5    6      ar
     7    6    7      ar
     8    6    9       1
     9    7    8      ar
    10    9   10       2
    11    9   11       2
    12    9   12       1
    13   12   13       1
    14   12   17       1
    15   13   14       1
    16   14   15       1
    17   14   16       1
    18   17   18       1
    19   18   19       1
    20   18   20       1
    21   20   21       1
    22   20   28       1
    23   21   22       1
    24   22   23      ar
    25   22   27      ar
    26   23   24      ar
    27   24   25      ar
    28   25   26      ar
    29   26   27      ar
    30   28   29       1
    31   28   47       1
    32   29   30       2
    33   30   31       1
    34   30   46       1
    35   31   32       1
    36   32   33       1
    37   33   34       2
    38   33   35      am
    39   35   36       1
    40   36   37       1
    41   36   45       1
    42   37   38       1
    43   37   39       1
    44   39   40       1
    45   40   41      ar
    46   40   45      ar
    47   41   42      ar
    48   42   43      ar
    49   43   44      ar
    50   44   45      ar
    51   46   47       2
    52    1   48       1
    53    1   49       1
    54    1   50       1
    55    4   51       1
    56    5   52       1
    57    7   53       1
    58    8   54       1
    59   13   55       1
    60   13   56       1
    61   14   57       1
    62   15   58       1
    63   15   59       1
    64   15   60       1
    65   16   61       1
    66   16   62       1
    67   16   63       1
    68   17   64       1
    69   17   65       1
    70   18   66       1
    71   19   67       1
    72   20   68       1
    73   21   69       1
    74   21   70       1
    75   23   71       1
    76   24   72       1
    77   25   73       1
    78   26   74       1
    79   27   75       1
    80   29   76       1
    81   31   77       1
    82   31   78       1
    83   35   79       1
    84   36   80       1
    85   37   81       1
    86   38   82       1
    87   39   83       1
    88   39   84       1
    89   41   85       1
    90   42   86       1
    91   43   87       1
    92   44   88       1
@<TRIPOS>SUBSTRUCTURE
     1 AB2200      1 GROUP             4 A     AB2     0 **** AB2 A 200
