@<TRIPOS>MOLECULE
1lho_AOM_1_ligand
   53    56     1     0     0
SMALL
NO_CHARGES


@<TRIPOS>ATOM
     1 C1          23.9090     9.9710    30.8320 C.3          1 AOM301   0.0000
     2 C10         23.3110    10.6280    32.1130 C.3          1 AOM301   0.0000
     3 C11         21.2280     9.0200    32.0830 C.3          1 AOM301   0.0000
     4 C12         19.6640     8.9240    32.0890 C.3          1 AOM301   0.0000
     5 C13         19.0480     9.6620    33.2930 C.3          1 AOM301   0.0000
     6 C14         19.5520    11.1410    33.3070 C.3          1 AOM301   0.0000
     7 C15         18.6810    11.8100    34.4110 C.3          1 AOM301   0.0000
     8 C16         17.3040    11.0230    34.2930 C.3          1 AOM301   0.0000
     9 C17         17.5510     9.9770    33.1870 C.3          1 AOM301   0.0000
    10 C18         19.3570     8.8690    34.6140 C.3          1 AOM301   0.0000
    11 C19         23.8960     9.8600    33.3630 C.3          1 AOM301   0.0000
    12 C2          25.4600    10.1710    30.7200 C.3          1 AOM301   0.0000
    13 C3          25.7790    11.6910    30.7630 C.3          1 AOM301   0.0000
    14 C4          25.2450    12.3640    32.0570 C.3          1 AOM301   0.0000
    15 C5          23.7100    12.1830    32.1350 C.3          1 AOM301   0.0000
    16 C6          23.1250    12.8590    33.4040 C.3          1 AOM301   0.0000
    17 C7          21.5880    12.7150    33.4100 C.3          1 AOM301   0.0000
    18 C8          21.1030    11.2410    33.3810 C.3          1 AOM301   0.0000
    19 C9          21.7310    10.5040    32.1260 C.3          1 AOM301   0.0000
    20 O3          27.2040    11.8800    30.6560 O.3          1 AOM301   0.0000
    21 O17         16.7000     8.8370    33.4000 O.3          1 AOM301   0.0000
    22 H1          23.4745    10.3801    30.0296 H            1 AOM301   0.0000
    23 H2          23.7132     8.9906    30.8536 H            1 AOM301   0.0000
    24 H3          21.5739     8.5868    31.2507 H            1 AOM301   0.0000
    25 H4          21.5833     8.5364    32.8829 H            1 AOM301   0.0000
    26 H5          19.3993     7.9605    32.1304 H            1 AOM301   0.0000
    27 H6          19.3119     9.3305    31.2459 H            1 AOM301   0.0000
    28 H7          19.2774    11.5482    32.4359 H            1 AOM301   0.0000
    29 H8          18.5557    12.7855    34.2299 H            1 AOM301   0.0000
    30 H9          19.0895    11.6887    35.3157 H            1 AOM301   0.0000
    31 H10         16.5635    11.6431    34.0341 H            1 AOM301   0.0000
    32 H11         17.0771    10.5758    35.1582 H            1 AOM301   0.0000
    33 H12         17.3550    10.3803    32.2932 H            1 AOM301   0.0000
    34 H13         18.9560     9.3504    35.3933 H            1 AOM301   0.0000
    35 H14         18.9647     7.9513    34.5514 H            1 AOM301   0.0000
    36 H15         20.3469     8.8006    34.7379 H            1 AOM301   0.0000
    37 H16         23.5288    10.2608    34.2023 H            1 AOM301   0.0000
    38 H17         23.6366     8.8955    33.3130 H            1 AOM301   0.0000
    39 H18         24.8930     9.9374    33.3651 H            1 AOM301   0.0000
    40 H19         25.7864     9.7843    29.8575 H            1 AOM301   0.0000
    41 H20         25.9132     9.7117    31.4839 H            1 AOM301   0.0000
    42 H21         25.3424    12.1278    29.9765 H            1 AOM301   0.0000
    43 H22         25.4655    13.3393    32.0412 H            1 AOM301   0.0000
    44 H23         25.6720    11.9386    32.8549 H            1 AOM301   0.0000
    45 H24         23.3033    12.6206    31.3331 H            1 AOM301   0.0000
    46 H25         23.3678    13.8291    33.4055 H            1 AOM301   0.0000
    47 H26         23.5030    12.4195    34.2188 H            1 AOM301   0.0000
    48 H27         21.2232    13.1839    32.6056 H            1 AOM301   0.0000
    49 H28         21.2329    13.1486    34.2382 H            1 AOM301   0.0000
    50 H29         21.4157    10.7828    34.2130 H            1 AOM301   0.0000
    51 H30         21.3871    10.9615    31.3060 H            1 AOM301   0.0000
    52 H31         27.5276    11.4937    29.7922 H            1 AOM301   0.0000
    53 H32         15.8323     9.1380    33.7956 H            1 AOM301   0.0000
@<TRIPOS>BOND
     1    1    2       1
     2    1   12       1
     3    2   11       1
     4    2   15       1
     5    2   19       1
     6    3    4       1
     7    3   19       1
     8    4    5       1
     9    5    6       1
    10    5    9       1
    11    5   10       1
    12    6    7       1
    13    6   18       1
    14    7    8       1
    15    8    9       1
    16    9   21       1
    17   12   13       1
    18   13   14       1
    19   13   20       1
    20   14   15       1
    21   15   16       1
    22   16   17       1
    23   17   18       1
    24   18   19       1
    25    1   22       1
    26    1   23       1
    27    3   24       1
    28    3   25       1
    29    4   26       1
    30    4   27       1
    31    6   28       1
    32    7   29       1
    33    7   30       1
    34    8   31       1
    35    8   32       1
    36    9   33       1
    37   10   34       1
    38   10   35       1
    39   10   36       1
    40   11   37       1
    41   11   38       1
    42   11   39       1
    43   12   40       1
    44   12   41       1
    45   13   42       1
    46   14   43       1
    47   14   44       1
    48   15   45       1
    49   16   46       1
    50   16   47       1
    51   17   48       1
    52   17   49       1
    53   18   50       1
    54   19   51       1
    55   20   52       1
    56   21   53       1
@<TRIPOS>SUBSTRUCTURE
     1 AOM301      1 GROUP             4 A     AOM     0 **** AOM A 301
