@<TRIPOS>MOLECULE
4dq1_UMP_2_ligand
   31    32     1     0     0
SMALL
NO_CHARGES


@<TRIPOS>ATOM
     1 N1          40.5090    26.9290    -4.7360 N.pl3        1 UMP501   0.0000
     2 C2          41.5190    25.9530    -4.8900 C.2          1 UMP501   0.0000
     3 N3          42.5340    25.8710    -3.9890 N.pl3        1 UMP501   0.0000
     4 C4          42.6390    26.7160    -2.9360 C.2          1 UMP501   0.0000
     5 C5          41.6430    27.6840    -2.7640 C.2          1 UMP501   0.0000
     6 C6          40.5880    27.7820    -3.6850 C.2          1 UMP501   0.0000
     7 O2          41.4530    25.1690    -5.8770 O.2          1 UMP501   0.0000
     8 O4          43.6030    26.6350    -2.1070 O.2          1 UMP501   0.0000
     9 C1'         39.4240    27.0360    -5.7330 C.3          1 UMP501   0.0000
    10 C2'         38.3040    25.9940    -5.6980 C.3          1 UMP501   0.0000
    11 C3'         37.2140    26.7990    -6.3860 C.3          1 UMP501   0.0000
    12 C4'         37.3630    28.1820    -5.7910 C.3          1 UMP501   0.0000
    13 O3'         37.5150    27.0290    -7.7710 O.3          1 UMP501   0.0000
    14 O4'         38.7790    28.3230    -5.6540 O.3          1 UMP501   0.0000
    15 C5'         36.6300    28.3300    -4.4540 C.3          1 UMP501   0.0000
    16 O5'         35.2480    28.3700    -4.7310 O.3          1 UMP501   0.0000
    17 P           34.1150    27.5460    -3.9320 P.3          1 UMP501   0.0000
    18 OP1         34.3870    26.0450    -3.9440 O.co2        1 UMP501   0.0000
    19 OP2         34.1390    28.1110    -2.5260 O.co2        1 UMP501  -1.0000
    20 OP3         32.8810    27.9130    -4.7510 O.co2        1 UMP501  -1.0000
    21 H1          43.2281    25.1610    -4.1082 H            1 UMP501   0.0000
    22 H2          41.6829    28.3074    -1.9831 H            1 UMP501   0.0000
    23 H3          39.8889    28.4868    -3.5649 H            1 UMP501   0.0000
    24 H1'         39.8498    26.9773    -6.6359 H            1 UMP501   0.0000
    25 H2'1        38.0527    25.7440    -4.7629 H            1 UMP501   0.0000
    26 H2'2        38.5422    25.1693    -6.2109 H            1 UMP501   0.0000
    27 H3'         36.3017    26.4138    -6.2468 H            1 UMP501   0.0000
    28 H4'         37.0200    28.8632    -6.4378 H            1 UMP501   0.0000
    29 H9          37.6030    26.1519    -8.2431 H            1 UMP501   0.0000
    30 H5'1        36.9122    29.1760    -4.0016 H            1 UMP501   0.0000
    31 H5'2        36.8374    27.5506    -3.8627 H            1 UMP501   0.0000
@<TRIPOS>BOND
     1    1    2       1
     2    1    6       1
     3    1    9       1
     4    2    3       1
     5    2    7       2
     6    3    4       1
     7    4    5       1
     8    4    8       2
     9    5    6       2
    10    9   10       1
    11    9   14       1
    12   10   11       1
    13   11   12       1
    14   11   13       1
    15   12   14       1
    16   12   15       1
    17   15   16       1
    18   16   17       1
    19   17   18      ar
    20   17   19      ar
    21   17   20      ar
    22    3   21       1
    23    5   22       1
    24    6   23       1
    25    9   24       1
    26   10   25       1
    27   10   26       1
    28   11   27       1
    29   12   28       1
    30   13   29       1
    31   15   30       1
    32   15   31       1
@<TRIPOS>SUBSTRUCTURE
     1 UMP501      1 GROUP             4 B     UMP     0 **** UMP B 501
