@<TRIPOS>MOLECULE
3pls_ANP_1_ligand
   44    46     1     0     0
SMALL
NO_CHARGES


@<TRIPOS>ATOM
     1 PG          25.9660    25.9240     9.3690 P.3          1 ANP1358   0.0000
     2 O1G         26.0040    25.3730    10.7850 O.co2        1 ANP1358   0.0000
     3 O2G         24.6310    26.5400     8.9590 O.co2        1 ANP1358  -1.0000
     4 O3G         27.1450    26.8420     9.0820 O.co2        1 ANP1358  -1.0000
     5 PB          26.3440    22.9120     8.9560 P.3          1 ANP1358   0.0000
     6 O1B         26.1190    21.9020     7.8740 O.co2        1 ANP1358   0.0000
     7 O2B         25.4590    22.6880    10.1500 O.co2        1 ANP1358  -1.0000
     8 N3B         26.2060    24.5270     8.3160 N.3          1 ANP1358   0.0000
     9 PA          28.9210    21.6400     9.0300 P.3          1 ANP1358   0.0000
    10 O1A         28.3690    20.8610     7.8730 O.co2        1 ANP1358   0.0000
    11 O2A         29.3570    20.9140    10.2800 O.co2        1 ANP1358  -1.0000
    12 O3A         27.8520    22.7530     9.4960 O.3          1 ANP1358   0.0000
    13 O5'         30.1380    22.5620     8.5660 O.3          1 ANP1358   0.0000
    14 C5'         30.7540    23.3760     9.5630 C.3          1 ANP1358   0.0000
    15 C4'         31.2780    24.6590     8.9430 C.3          1 ANP1358   0.0000
    16 O4'         32.3030    24.3320     8.0200 O.3          1 ANP1358   0.0000
    17 C3'         30.2200    25.4240     8.1830 C.3          1 ANP1358   0.0000
    18 O3'         30.3340    26.8060     8.5340 O.3          1 ANP1358   0.0000
    19 C2'         30.5490    25.1960     6.7240 C.3          1 ANP1358   0.0000
    20 O2'         30.1430    26.2960     5.8910 O.3          1 ANP1358   0.0000
    21 C1'         32.0610    24.9880     6.7810 C.3          1 ANP1358   0.0000
    22 N9          32.6220    24.1600     5.6780 N.pl3        1 ANP1358   0.0000
    23 C8          32.3440    22.8640     5.4150 C.2          1 ANP1358   0.0000
    24 N7          33.0580    22.4350     4.3370 N.2          1 ANP1358   0.0000
    25 C5          33.8110    23.4680     3.9110 C.ar         1 ANP1358   0.0000
    26 C6          34.7900    23.7140     2.8320 C.ar         1 ANP1358   0.0000
    27 N6          35.1150    22.7370     1.9710 N.pl3        1 ANP1358   0.0000
    28 N1          35.3560    24.9390     2.7380 N.ar         1 ANP1358   0.0000
    29 C2          35.0440    25.9280     3.5940 C.ar         1 ANP1358   0.0000
    30 N3          34.1550    25.7750     4.5910 N.ar         1 ANP1358   0.0000
    31 C4          33.5230    24.5980     4.7990 C.ar         1 ANP1358   0.0000
    32 H3B         27.0485    24.7005     7.8060 H            1 ANP1358   0.0000
    33 H5'1        31.5142    22.8742     9.9756 H            1 ANP1358   0.0000
    34 H5'2        30.0812    23.6007    10.2679 H            1 ANP1358   0.0000
    35 H4'         31.6551    25.2429     9.6619 H            1 ANP1358   0.0000
    36 H3'         29.3073    25.0772     8.3993 H            1 ANP1358   0.0000
    37 H6          29.4769    27.1175     8.9444 H            1 ANP1358   0.0000
    38 H2'         30.1072    24.3562     6.4084 H            1 ANP1358   0.0000
    39 H8          30.8903    26.9571     5.8242 H            1 ANP1358   0.0000
    40 H1'         32.5152    25.8789     6.7867 H            1 ANP1358   0.0000
    41 H10         31.7048    22.2998     5.9376 H            1 ANP1358   0.0000
    42 H11         35.7785    22.9119     1.2436 H            1 ANP1358   0.0000
    43 H12         34.6936    21.8342     2.0569 H            1 ANP1358   0.0000
    44 H13         35.4923    26.8151     3.4844 H            1 ANP1358   0.0000
@<TRIPOS>BOND
     1    1    2      ar
     2    1    3      ar
     3    1    4      ar
     4    1    8       1
     5    5    6      ar
     6    5    7      ar
     7    5    8       1
     8    5   12       1
     9    9   10      ar
    10    9   11      ar
    11    9   12       1
    12    9   13       1
    13   13   14       1
    14   14   15       1
    15   15   16       1
    16   15   17       1
    17   16   21       1
    18   17   18       1
    19   17   19       1
    20   19   20       1
    21   19   21       1
    22   21   22       1
    23   22   23       1
    24   22   31       1
    25   23   24       2
    26   24   25       1
    27   25   26      ar
    28   25   31      ar
    29   26   27       1
    30   26   28      ar
    31   28   29      ar
    32   29   30      ar
    33   30   31      ar
    34   29   44       1
    35   27   43       1
    36   27   42       1
    37    8   32       1
    38   23   41       1
    39   14   33       1
    40   14   34       1
    41   15   35       1
    42   17   36       1
    43   18   37       1
    44   19   38       1
    45   20   39       1
    46   21   40       1
@<TRIPOS>SUBSTRUCTURE
     1 ANP1358     1 GROUP             4 A     ANP     0 **** ANP A1358
