@<TRIPOS>MOLECULE
4qdc_ASD_1_ligand
   47    50     1     0     0
SMALL
NO_CHARGES


@<TRIPOS>ATOM
     1 C1         -88.9740    16.7220     2.8110 C.3          1 ASD404   0.0000
     2 C10        -88.9280    15.2270     2.4140 C.3          1 ASD404   0.0000
     3 C11        -89.6060    15.8600    -0.0100 C.3          1 ASD404   0.0000
     4 C12        -90.6680    15.7100    -1.1340 C.3          1 ASD404   0.0000
     5 C13        -90.9140    14.2390    -1.3950 C.3          1 ASD404   0.0000
     6 C14        -91.2890    13.5410    -0.1030 C.3          1 ASD404   0.0000
     7 C15        -91.9740    12.2330    -0.5530 C.3          1 ASD404   0.0000
     8 C16        -92.8390    12.6960    -1.7080 C.3          1 ASD404   0.0000
     9 C17        -92.1560    13.9400    -2.1750 C.2          1 ASD404   0.0000
    10 C18        -89.8210    13.5550    -2.1940 C.3          1 ASD404   0.0000
    11 C19        -87.5550    14.8160     1.9370 C.3          1 ASD404   0.0000
    12 C2         -88.8020    17.1490     4.2440 C.3          1 ASD404   0.0000
    13 C3         -89.0250    16.1020     5.2770 C.2          1 ASD404   0.0000
    14 C4         -89.2920    14.7100     4.8710 C.2          1 ASD404   0.0000
    15 C5         -89.2680    14.3090     3.5870 C.2          1 ASD404   0.0000
    16 C6         -89.5740    12.8870     3.2620 C.3          1 ASD404   0.0000
    17 C7         -90.5960    12.8110     2.1660 C.3          1 ASD404   0.0000
    18 C8         -90.1570    13.5300     0.9200 C.3          1 ASD404   0.0000
    19 C9         -89.9320    15.0140     1.2680 C.3          1 ASD404   0.0000
    20 O1         -88.9860    16.4370     6.4740 O.2          1 ASD404   0.0000
    21 O2         -92.5520    14.6540    -3.0610 O.2          1 ASD404   0.0000
    22 H1         -89.8652    17.0671     2.5165 H            1 ASD404   0.0000
    23 H2         -88.2517    17.1769     2.2901 H            1 ASD404   0.0000
    24 H3         -89.5550    16.8238     0.2519 H            1 ASD404   0.0000
    25 H4         -88.7204    15.5648    -0.3687 H            1 ASD404   0.0000
    26 H5         -90.3343    16.1465    -1.9695 H            1 ASD404   0.0000
    27 H6         -91.5213    16.1460    -0.8480 H            1 ASD404   0.0000
    28 H7         -92.0133    14.0980     0.3033 H            1 ASD404   0.0000
    29 H8         -92.5301    11.8449     0.1820 H            1 ASD404   0.0000
    30 H9         -91.3008    11.5575    -0.8538 H            1 ASD404   0.0000
    31 H10        -93.7702    12.8927    -1.4013 H            1 ASD404   0.0000
    32 H11        -92.8653    12.0083    -2.4335 H            1 ASD404   0.0000
    33 H12        -90.0559    12.5917    -2.3235 H            1 ASD404   0.0000
    34 H13        -89.7321    13.9992    -3.0855 H            1 ASD404   0.0000
    35 H14        -88.9544    13.6232    -1.6997 H            1 ASD404   0.0000
    36 H15        -87.5641    13.8470     1.6902 H            1 ASD404   0.0000
    37 H16        -87.3028    15.3612     1.1375 H            1 ASD404   0.0000
    38 H17        -86.8891    14.9677     2.6675 H            1 ASD404   0.0000
    39 H18        -89.4476    17.8922     4.4197 H            1 ASD404   0.0000
    40 H19        -87.8671    17.4874     4.3506 H            1 ASD404   0.0000
    41 H20        -89.4996    14.0357     5.5797 H            1 ASD404   0.0000
    42 H21        -89.9307    12.4317     4.0777 H            1 ASD404   0.0000
    43 H22        -88.7363    12.4292     2.9641 H            1 ASD404   0.0000
    44 H23        -91.4469    13.2233     2.4915 H            1 ASD404   0.0000
    45 H24        -90.7557    11.8495     1.9423 H            1 ASD404   0.0000
    46 H25        -89.3292    13.1189     0.5384 H            1 ASD404   0.0000
    47 H26        -90.8101    15.3533     1.6054 H            1 ASD404   0.0000
@<TRIPOS>BOND
     1    1    2       1
     2    1   12       1
     3    2   11       1
     4    2   15       1
     5    2   19       1
     6    3    4       1
     7    3   19       1
     8    4    5       1
     9    5    6       1
    10    5    9       1
    11    5   10       1
    12    6    7       1
    13    6   18       1
    14    7    8       1
    15    8    9       1
    16    9   21       2
    17   12   13       1
    18   13   14       1
    19   13   20       2
    20   14   15       2
    21   15   16       1
    22   16   17       1
    23   17   18       1
    24   18   19       1
    25    1   22       1
    26    1   23       1
    27    3   24       1
    28    3   25       1
    29    4   26       1
    30    4   27       1
    31    6   28       1
    32    7   29       1
    33    7   30       1
    34    8   31       1
    35    8   32       1
    36   10   33       1
    37   10   34       1
    38   10   35       1
    39   11   36       1
    40   11   37       1
    41   11   38       1
    42   12   39       1
    43   12   40       1
    44   14   41       1
    45   16   42       1
    46   16   43       1
    47   17   44       1
    48   17   45       1
    49   18   46       1
    50   19   47       1
@<TRIPOS>SUBSTRUCTURE
     1 ASD404      1 GROUP             4 A     ASD     0 **** ASD A 404
