@<TRIPOS>MOLECULE
4boy_NAD_2_ligand
   70    74     1     0     0
SMALL
NO_CHARGES


@<TRIPOS>ATOM
     1 PN          35.4750   -15.9390     5.5500 P.3          1 NAD1001   0.0000
     2 O1N         34.4310   -16.6130     6.4770 O.co2        1 NAD1001   0.0000
     3 O2N         35.7680   -16.4220     4.1570 O.co2        1 NAD1001  -1.0000
     4 O3          36.8880   -15.7310     6.2890 O.3          1 NAD1001   0.0000
     5 O5D         34.8710   -14.4630     5.4900 O.3          1 NAD1001   0.0000
     6 C5D         35.4580   -13.4670     4.6040 C.3          1 NAD1001   0.0000
     7 C4D         34.5390   -12.2640     4.4360 C.3          1 NAD1001   0.0000
     8 O4D         33.2060   -12.6600     4.0560 O.3          1 NAD1001   0.0000
     9 C3D         34.4190   -11.5000     5.7340 C.3          1 NAD1001   0.0000
    10 O3D         34.1960   -10.1470     5.3090 O.3          1 NAD1001   0.0000
    11 C2D         33.2010   -12.0830     6.3550 C.3          1 NAD1001   0.0000
    12 O2D         32.4940   -11.2130     7.2080 O.3          1 NAD1001   0.0000
    13 C1D         32.3160   -12.2840     5.1110 C.3          1 NAD1001   0.0000
    14 N1N         31.2390   -13.2480     5.1800 N.ar         1 NAD1001   1.0000
    15 C6N         30.0680   -12.8900     4.5920 C.ar         1 NAD1001   0.0000
    16 C5N         28.9930   -13.7620     4.6200 C.ar         1 NAD1001   0.0000
    17 C4N         29.1130   -14.9950     5.2290 C.ar         1 NAD1001   0.0000
    18 C3N         30.3190   -15.3760     5.8180 C.ar         1 NAD1001   0.0000
    19 C2N         31.3920   -14.4920     5.7660 C.ar         1 NAD1001   0.0000
    20 C7N         30.4280   -16.7400     6.4630 C.2          1 NAD1001   0.0000
    21 O7N         29.4534   -17.3008     6.9744 O.2          1 NAD1001   0.0000
    22 PA          38.2330   -16.6680     6.1660 P.3          1 NAD1001   0.0000
    23 O1A         39.1490   -16.2400     7.2830 O.co2        1 NAD1001   0.0000
    24 O2A         37.9760   -18.1060     5.8170 O.co2        1 NAD1001  -1.0000
    25 O5B         38.7270   -15.9650     4.7620 O.3          1 NAD1001   0.0000
    26 C5B         39.6710   -14.8890     4.6060 C.3          1 NAD1001   0.0000
    27 C4B         40.7240   -15.3290     3.6030 C.3          1 NAD1001   0.0000
    28 O4B         41.4750   -14.2080     3.1970 O.3          1 NAD1001   0.0000
    29 C3B         41.7320   -16.3630     4.1910 C.3          1 NAD1001   0.0000
    30 O3B         42.1990   -17.2840     3.1640 O.3          1 NAD1001   0.0000
    31 C2B         42.8040   -15.4610     4.7360 C.3          1 NAD1001   0.0000
    32 O2B         44.0520   -16.0300     4.7700 O.3          1 NAD1001   0.0000
    33 C1B         42.8520   -14.3750     3.6420 C.3          1 NAD1001   0.0000
    34 N9A         43.4270   -13.0520     4.0060 N.pl3        1 NAD1001   0.0000
    35 C4A         44.0820   -12.2900     3.1100 C.ar         1 NAD1001   0.0000
    36 N3A         44.3990   -12.4100     1.7890 N.ar         1 NAD1001   0.0000
    37 C2A         45.0570   -11.4320     1.1120 C.ar         1 NAD1001   0.0000
    38 N1A         45.4500   -10.2750     1.6930 N.ar         1 NAD1001   0.0000
    39 C6A         45.1860   -10.0300     2.9990 C.ar         1 NAD1001   0.0000
    40 C5A         44.4720   -11.0580     3.7990 C.ar         1 NAD1001   0.0000
    41 N7A         44.0150   -11.1690     5.0390 N.2          1 NAD1001   0.0000
    42 C8A         43.3670   -12.3810     5.1670 C.2          1 NAD1001   0.0000
    43 N6A         45.5670    -8.9010     3.5880 N.pl3        1 NAD1001   0.0000
    44 N7N         31.6007   -17.3264     6.4433 N.am         1 NAD1001   0.0000
    45 H5D1        35.6181   -13.8820     3.7084 H            1 NAD1001   0.0000
    46 H5D2        36.3282   -13.1606     4.9898 H            1 NAD1001   0.0000
    47 H4D         34.9146   -11.6598     3.7332 H            1 NAD1001   0.0000
    48 H3D         35.2292   -11.5936     6.3127 H            1 NAD1001   0.0000
    49 H5          34.1025    -9.5568     6.1109 H            1 NAD1001   0.0000
    50 H2D         33.4013   -12.9531     6.8053 H            1 NAD1001   0.0000
    51 H7          32.4571   -11.6047     8.1274 H            1 NAD1001   0.0000
    52 H1D         31.9179   -11.3980     4.8733 H            1 NAD1001   0.0000
    53 H6N         29.9829   -12.0014     4.1413 H            1 NAD1001   0.0000
    54 H5N         28.1261   -13.4976     4.1974 H            1 NAD1001   0.0000
    55 H4N         28.3314   -15.6184     5.2481 H            1 NAD1001   0.0000
    56 H2N         32.2755   -14.7562     6.1529 H            1 NAD1001   0.0000
    57 H5B1        40.1031   -14.6867     5.4848 H            1 NAD1001   0.0000
    58 H5B2        39.2021   -14.0724     4.2694 H            1 NAD1001   0.0000
    59 H4B         40.2717   -15.7280     2.8053 H            1 NAD1001   0.0000
    60 H3B         41.3026   -16.8724     4.9368 H            1 NAD1001   0.0000
    61 H17         42.6558   -16.7699     2.4380 H            1 NAD1001   0.0000
    62 H2B         42.5484   -15.0790     5.6241 H            1 NAD1001   0.0000
    63 H19         44.6793   -15.4915     4.2074 H            1 NAD1001   0.0000
    64 H1B         43.3800   -14.7374     2.8740 H            1 NAD1001   0.0000
    65 H2A         45.2593   -11.5737     0.1430 H            1 NAD1001   0.0000
    66 H8A         42.9202   -12.7096     5.9991 H            1 NAD1001   0.0000
    67 H6A1        45.3589    -8.7460     4.5538 H            1 NAD1001   0.0000
    68 H6A2        46.0617    -8.2066     3.0654 H            1 NAD1001   0.0000
    69 H7N1        31.7084   -18.2422     6.8303 H            1 NAD1001   0.0000
    70 H7N2        32.3874   -16.8579     6.0413 H            1 NAD1001   0.0000
@<TRIPOS>BOND
     1    1    2      ar
     2    1    3      ar
     3    1    4       1
     4    1    5       1
     5    4   22       1
     6    5    6       1
     7    6    7       1
     8    7    8       1
     9    7    9       1
    10    8   13       1
    11    9   10       1
    12    9   11       1
    13   11   12       1
    14   11   13       1
    15   13   14       1
    16   14   15      ar
    17   14   19      ar
    18   15   16      ar
    19   16   17      ar
    20   17   18      ar
    21   18   19      ar
    22   18   20       1
    23   20   21       2
    24   20   44      am
    25   22   23      ar
    26   22   24      ar
    27   22   25       1
    28   25   26       1
    29   26   27       1
    30   27   28       1
    31   27   29       1
    32   28   33       1
    33   29   30       1
    34   29   31       1
    35   31   32       1
    36   31   33       1
    37   33   34       1
    38   34   35       1
    39   34   42       1
    40   35   36      ar
    41   35   40      ar
    42   36   37      ar
    43   37   38      ar
    44   38   39      ar
    45   39   40      ar
    46   39   43       1
    47   40   41       1
    48   41   42       2
    49   44   70       1
    50    6   45       1
    51    6   46       1
    52    7   47       1
    53    9   48       1
    54   10   49       1
    55   11   50       1
    56   12   51       1
    57   13   52       1
    58   15   53       1
    59   16   54       1
    60   17   55       1
    61   19   56       1
    62   44   69       1
    63   26   57       1
    64   26   58       1
    65   27   59       1
    66   29   60       1
    67   30   61       1
    68   31   62       1
    69   32   63       1
    70   33   64       1
    71   37   65       1
    72   42   66       1
    73   43   67       1
    74   43   68       1
@<TRIPOS>SUBSTRUCTURE
     1 NAD1001     1 GROUP             4 B     NAD     0 **** NAD B1001
