@<TRIPOS>MOLECULE
3ing_NDP_1_ligand
   73    77     1     0     0
SMALL
NO_CHARGES


@<TRIPOS>ATOM
     1 PA          36.1940    33.0600     3.2240 P.3          1 NDP326   0.0000
     2 O1A         37.4400    33.8240     3.4210 O.co2        1 NDP326   0.0000
     3 O2A         35.3230    33.4890     2.1040 O.co2        1 NDP326  -1.0000
     4 O5B         36.5250    31.5010     2.9940 O.3          1 NDP326   0.0000
     5 C5B         35.5790    30.5060     2.6590 C.3          1 NDP326   0.0000
     6 C4B         36.2860    29.2150     2.2770 C.3          1 NDP326   0.0000
     7 O4B         35.3750    28.2380     1.8440 O.3          1 NDP326   0.0000
     8 C3B         37.2210    29.4060     1.0750 C.3          1 NDP326   0.0000
     9 O3B         38.2660    28.4460     1.0880 O.3          1 NDP326   0.0000
    10 C2B         36.3190    29.1590    -0.0860 C.3          1 NDP326   0.0000
    11 O2B         36.9780    28.7740    -1.2600 O.3          1 NDP326   0.0000
    12 C1B         35.5460    27.9840     0.4510 C.3          1 NDP326   0.0000
    13 N9A         34.2350    27.7770    -0.1510 N.pl3        1 NDP326   0.0000
    14 C8A         33.3380    28.6660    -0.6750 C.2          1 NDP326   0.0000
    15 N7A         32.2250    27.9600    -1.0500 N.2          1 NDP326   0.0000
    16 C5A         32.4270    26.6660    -0.7610 C.ar         1 NDP326   0.0000
    17 C6A         31.6170    25.5680    -0.9650 C.ar         1 NDP326   0.0000
    18 N6A         30.3230    25.7250    -1.2320 N.pl3        1 NDP326   0.0000
    19 N1A         32.1170    24.3870    -0.5470 N.ar         1 NDP326   0.0000
    20 C2A         33.3760    24.2390    -0.0010 C.ar         1 NDP326   0.0000
    21 N3A         34.1990    25.3280     0.2170 N.ar         1 NDP326   0.0000
    22 C4A         33.6770    26.5250    -0.1810 C.ar         1 NDP326   0.0000
    23 O3          35.3380    33.0560     4.5840 O.3          1 NDP326   0.0000
    24 PN          35.9080    33.2730     6.0720 P.3          1 NDP326   0.0000
    25 O1N         36.1020    34.7350     6.3120 O.co2        1 NDP326   0.0000
    26 O2N         37.0530    32.3260     6.2420 O.co2        1 NDP326  -1.0000
    27 O5D         34.6640    32.8070     7.0050 O.3          1 NDP326   0.0000
    28 C5D         34.3930    31.4050     6.9930 C.3          1 NDP326   0.0000
    29 C4D         33.1900    31.1250     7.8880 C.3          1 NDP326   0.0000
    30 O4D         33.5200    31.5470     9.1920 O.3          1 NDP326   0.0000
    31 C3D         31.9510    31.8920     7.5110 C.3          1 NDP326   0.0000
    32 O3D         30.7640    31.0910     7.5410 O.3          1 NDP326   0.0000
    33 C2D         31.9000    33.0320     8.5100 C.3          1 NDP326   0.0000
    34 O2D         30.5980    33.4960     8.7460 O.3          1 NDP326   0.0000
    35 C1D         32.5060    32.3810     9.7310 C.3          1 NDP326   0.0000
    36 N1N         33.0380    33.3260    10.6970 N.ar         1 NDP326   1.0000
    37 C2N         33.9950    34.2250    10.3040 C.ar         1 NDP326   0.0000
    38 C3N         34.4110    35.2660    11.1210 C.ar         1 NDP326   0.0000
    39 C7N         35.5500    36.1070    10.6860 C.2          1 NDP326   0.0000
    40 O7N         36.3890    36.5520    11.6830 O.2          1 NDP326   0.0000
    41 N7N         35.8300    36.3190     9.4070 N.am         1 NDP326   0.0000
    42 C4N         34.0910    35.2630    12.6120 C.ar         1 NDP326   0.0000
    43 C5N         33.0660    34.2140    12.9420 C.ar         1 NDP326   0.0000
    44 C6N         32.6060    33.2970    12.0000 C.ar         1 NDP326   0.0000
    45 P2B         38.1710    29.6170    -1.9210 P.3          1 NDP326   0.0000
    46 O1X         38.3140    28.8840    -3.2270 O.co2        1 NDP326   0.0000
    47 O2X         39.4190    29.7180    -0.9950 O.co2        1 NDP326  -1.0000
    48 O3X         37.5870    30.9820    -2.1040 O.co2        1 NDP326  -1.0000
    49 H5B1        35.0276    30.8214     1.8867 H            1 NDP326   0.0000
    50 H5B2        34.9851    30.3369     3.4456 H            1 NDP326   0.0000
    51 H4B         36.8059    28.8700     3.0585 H            1 NDP326   0.0000
    52 H3B         37.5888    30.3356     1.0514 H            1 NDP326   0.0000
    53 H5          39.0809    28.8345     0.6578 H            1 NDP326   0.0000
    54 H2B         35.7185    29.9418    -0.2494 H            1 NDP326   0.0000
    55 H1B         36.0922    27.1544     0.3357 H            1 NDP326   0.0000
    56 H8A         33.4702    29.6529    -0.7678 H            1 NDP326   0.0000
    57 H6A1        29.7420    24.9244    -1.3787 H            1 NDP326   0.0000
    58 H6A2        29.9315    26.6436    -1.2859 H            1 NDP326   0.0000
    59 H2A         33.6996    23.3246     0.2420 H            1 NDP326   0.0000
    60 H5D1        35.1893    30.9065     7.3357 H            1 NDP326   0.0000
    61 H5D2        34.1919    31.1102     6.0588 H            1 NDP326   0.0000
    62 H4D         32.9923    30.1447     7.8905 H            1 NDP326   0.0000
    63 H3D         32.0674    32.2685     6.5919 H            1 NDP326   0.0000
    64 H16         30.8579    30.3316     6.8972 H            1 NDP326   0.0000
    65 H2D         32.4806    33.7849     8.2000 H            1 NDP326   0.0000
    66 H18         30.5382    34.4625     8.4965 H            1 NDP326   0.0000
    67 H1D         31.8150    31.8113    10.1759 H            1 NDP326   0.0000
    68 H2N         34.4071    34.1272     9.3981 H            1 NDP326   0.0000
    69 H7N1        36.6084    36.8936     9.1541 H            1 NDP326   0.0000
    70 H7N2        35.2627    35.9043     8.6956 H            1 NDP326   0.0000
    71 H4N         34.5079    35.8776    13.2817 H            1 NDP326   0.0000
    72 H5N         32.7010    34.1731    13.8721 H            1 NDP326   0.0000
    73 H6N         31.9450    32.6006    12.2794 H            1 NDP326   0.0000
@<TRIPOS>BOND
     1    1    2      ar
     2    1    3      ar
     3    1    4       1
     4    1   23       1
     5    4    5       1
     6    5    6       1
     7    6    7       1
     8    6    8       1
     9    7   12       1
    10    8    9       1
    11    8   10       1
    12   10   11       1
    13   10   12       1
    14   11   45       1
    15   12   13       1
    16   13   14       1
    17   13   22       1
    18   14   15       2
    19   15   16       1
    20   16   17      ar
    21   16   22      ar
    22   17   18       1
    23   17   19      ar
    24   19   20      ar
    25   20   21      ar
    26   21   22      ar
    27   23   24       1
    28   24   25      ar
    29   24   26      ar
    30   24   27       1
    31   27   28       1
    32   28   29       1
    33   29   30       1
    34   29   31       1
    35   30   35       1
    36   31   32       1
    37   31   33       1
    38   33   34       1
    39   33   35       1
    40   35   36       1
    41   36   37      ar
    42   36   44      ar
    43   37   38      ar
    44   38   39       1
    45   38   42      ar
    46   39   40       2
    47   39   41      am
    48   42   43      ar
    49   43   44      ar
    50   45   46      ar
    51   45   47      ar
    52   45   48      ar
    53   43   72       1
    54    5   49       1
    55    5   50       1
    56    6   51       1
    57    8   52       1
    58    9   53       1
    59   10   54       1
    60   12   55       1
    61   14   56       1
    62   18   57       1
    63   18   58       1
    64   20   59       1
    65   44   73       1
    66   28   60       1
    67   28   61       1
    68   29   62       1
    69   31   63       1
    70   32   64       1
    71   33   65       1
    72   34   66       1
    73   35   67       1
    74   37   68       1
    75   41   69       1
    76   41   70       1
    77   42   71       1
@<TRIPOS>SUBSTRUCTURE
     1 NDP326      1 GROUP             4 A     NDP     0 **** NDP A 326
