@<TRIPOS>MOLECULE
3k5u_PFQ_1_ligand
   42    45     1     0     0
SMALL
NO_CHARGES


@<TRIPOS>ATOM
     1 C2          -4.4370   -30.5870     9.6760 C.ar         1 PFQ1001   0.0000
     2 C10         -3.4870   -32.0960     5.5850 C.2          1 PFQ1001   0.0000
     3 C11         -2.8700   -32.8540     4.6080 C.ar         1 PFQ1001   0.0000
     4 C12         -2.7970   -32.5120     3.2670 C.ar         1 PFQ1001   0.0000
     5 C13         -2.0850   -33.3120     2.3840 C.ar         1 PFQ1001   0.0000
     6 C14         -1.5640   -34.5360     2.8100 C.ar         1 PFQ1001   0.0000
     7 C15         -1.4940   -34.8140     4.1790 C.ar         1 PFQ1001   0.0000
     8 C16         -2.2470   -34.0300     5.0540 C.ar         1 PFQ1001   0.0000
     9 C19         -4.7640   -28.9360     4.4230 C.ar         1 PFQ1001   0.0000
    10 C20         -5.4030   -28.2510     3.4060 C.ar         1 PFQ1001   0.0000
    11 C21         -6.1070   -28.9490     2.4200 C.ar         1 PFQ1001   0.0000
    12 C22         -6.0620   -30.3430     2.4350 C.ar         1 PFQ1001   0.0000
    13 N1          -3.8240   -31.5750     9.0540 N.ar         1 PFQ1001   0.0000
    14 C6          -3.8210   -31.6010     7.7190 C.ar         1 PFQ1001   0.0000
    15 O6          -3.1970   -32.4680     6.8720 O.2          1 PFQ1001   0.0000
    16 C5          -4.5200   -30.6580     6.9630 C.ar         1 PFQ1001   0.0000
    17 N9          -5.9870   -28.7640     7.0820 N.pl3        1 PFQ1001   0.0000
    18 C4          -5.2200   -29.6860     7.6640 C.ar         1 PFQ1001   0.0000
    19 N3          -5.1140   -29.6700     9.0090 N.ar         1 PFQ1001   0.0000
    20 C17         -5.6490   -30.9990     3.6130 C.ar         1 PFQ1001   0.0000
    21 C1          -4.3130   -30.9980     5.6250 C.2          1 PFQ1001   0.0000
    22 C18         -4.8980   -30.3180     4.5670 C.ar         1 PFQ1001   0.0000
    23 C23         -8.0290   -28.3500     8.4710 C.3          1 PFQ1001   0.0000
    24 C8          -6.7290   -27.7610     7.8700 C.3          1 PFQ1001   0.0000
    25 O24         -8.7000   -27.3760     9.2920 O.3          1 PFQ1001   0.0000
    26 H1          -4.3882   -30.5309    10.6732 H            1 PFQ1001   0.0000
    27 H2          -3.2574   -31.6886     2.9354 H            1 PFQ1001   0.0000
    28 H3          -1.9447   -33.0114     1.4406 H            1 PFQ1001   0.0000
    29 H4          -1.2438   -35.2077     2.1420 H            1 PFQ1001   0.0000
    30 H5          -0.9185   -35.5563     4.5223 H            1 PFQ1001   0.0000
    31 H6          -2.3438   -34.3091     6.0094 H            1 PFQ1001   0.0000
    32 H7          -4.1932   -28.4301     5.0697 H            1 PFQ1001   0.0000
    33 H8          -5.3615   -27.2523     3.3755 H            1 PFQ1001   0.0000
    34 H9          -6.6299   -28.4608     1.7213 H            1 PFQ1001   0.0000
    35 H10         -6.3184   -30.8686     1.6238 H            1 PFQ1001   0.0000
    36 H11         -6.0615   -28.7517     6.0849 H            1 PFQ1001   0.0000
    37 H12         -5.8963   -31.9562     3.7635 H            1 PFQ1001   0.0000
    38 H13         -7.8001   -29.1475     9.0293 H            1 PFQ1001   0.0000
    39 H14         -8.6376   -28.6272     7.7275 H            1 PFQ1001   0.0000
    40 H15         -6.9662   -26.9929     7.2753 H            1 PFQ1001   0.0000
    41 H16         -6.1452   -27.4380     8.6149 H            1 PFQ1001   0.0000
    42 H17         -9.2022   -27.8428    10.0199 H            1 PFQ1001   0.0000
@<TRIPOS>BOND
     1    1   13      ar
     2    1   19      ar
     3    2    3       1
     4    2   15       1
     5    2   21       2
     6    3    4      ar
     7    3    8      ar
     8    4    5      ar
     9    5    6      ar
    10    6    7      ar
    11    7    8      ar
    12    9   10      ar
    13    9   22      ar
    14   10   11      ar
    15   11   12      ar
    16   12   20      ar
    17   13   14      ar
    18   14   15       1
    19   14   16      ar
    20   16   18      ar
    21   16   21       1
    22   17   18       1
    23   17   24       1
    24   18   19      ar
    25   20   22      ar
    26   21   22       1
    27   23   24       1
    28   23   25       1
    29    1   26       1
    30    4   27       1
    31    5   28       1
    32    6   29       1
    33    7   30       1
    34    8   31       1
    35    9   32       1
    36   10   33       1
    37   11   34       1
    38   12   35       1
    39   17   36       1
    40   20   37       1
    41   23   38       1
    42   23   39       1
    43   24   40       1
    44   24   41       1
    45   25   42       1
@<TRIPOS>SUBSTRUCTURE
     1 PFQ1001     1 GROUP             4 A     PFQ     0 **** PFQ A1001
