@<TRIPOS>MOLECULE
3ieu_GDP_2_ligand
   40    42     1     0     0
SMALL
NO_CHARGES


@<TRIPOS>ATOM
     1 PB         -26.6820    13.3040    67.9430 P.3          1 GDP302   0.0000
     2 O1B        -26.0530    13.3710    69.3200 O.co2        1 GDP302   0.0000
     3 O2B        -26.9440    11.8520    67.5810 O.co2        1 GDP302  -1.0000
     4 O3B        -25.7290    13.9360    66.9610 O.co2        1 GDP302  -1.0000
     5 O3A        -28.0650    14.0870    67.9040 O.3          1 GDP302   0.0000
     6 PA         -28.3140    15.5350    67.2590 P.3          1 GDP302   0.0000
     7 O1A        -28.7610    15.3520    65.8110 O.co2        1 GDP302   0.0000
     8 O2A        -27.1050    16.4300    67.4580 O.co2        1 GDP302  -1.0000
     9 O5'        -29.6120    16.0630    68.0660 O.3          1 GDP302   0.0000
    10 C5'        -30.8030    15.2630    67.9460 C.3          1 GDP302   0.0000
    11 C4'        -32.0660    16.0350    68.2700 C.3          1 GDP302   0.0000
    12 O4'        -31.8830    16.6950    69.5250 O.3          1 GDP302   0.0000
    13 C3'        -32.3240    17.1050    67.2150 C.3          1 GDP302   0.0000
    14 O3'        -33.6980    17.0980    66.7940 O.3          1 GDP302   0.0000
    15 C2'        -32.0120    18.4000    67.9270 C.3          1 GDP302   0.0000
    16 O2'        -32.7930    19.4970    67.4400 O.3          1 GDP302   0.0000
    17 C1'        -32.3080    18.0490    69.3770 C.3          1 GDP302   0.0000
    18 N9         -31.5350    18.9680    70.2280 N.pl3        1 GDP302   0.0000
    19 C8         -30.2050    19.1750    70.1590 C.2          1 GDP302   0.0000
    20 N7         -29.8100    20.0980    71.0750 N.2          1 GDP302   0.0000
    21 C5         -30.9090    20.4890    71.7440 C.2          1 GDP302   0.0000
    22 C6         -31.1910    21.4370    72.8410 C.2          1 GDP302   0.0000
    23 O6         -30.2630    22.1030    73.3600 O.2          1 GDP302   0.0000
    24 N1         -32.4700    21.5400    73.2430 N.pl3        1 GDP302   0.0000
    25 C2         -33.4750    20.8280    72.6900 C.2          1 GDP302   0.0000
    26 N2         -34.7270    21.0100    73.1640 N.pl3        1 GDP302   0.0000
    27 N3         -33.2890    19.9410    71.6780 N.2          1 GDP302   0.0000
    28 C4         -32.0480    19.7400    71.1810 C.2          1 GDP302   0.0000
    29 H5'1       -30.7321    14.4886    68.5747 H            1 GDP302   0.0000
    30 H5'2       -30.8674    14.9252    67.0070 H            1 GDP302   0.0000
    31 H4'        -32.8452    15.4104    68.3220 H            1 GDP302   0.0000
    32 H3'        -31.7157    16.9796    66.4312 H            1 GDP302   0.0000
    33 H5         -34.1107    17.9879    66.9883 H            1 GDP302   0.0000
    34 H2'        -31.0398    18.6111    67.8260 H            1 GDP302   0.0000
    35 H7         -32.6100    19.6300    66.4659 H            1 GDP302   0.0000
    36 H1'        -33.2863    18.1332    69.5665 H            1 GDP302   0.0000
    37 H9         -29.5913    18.7117    69.5197 H            1 GDP302   0.0000
    38 H10        -32.6868    22.1733    73.9859 H            1 GDP302   0.0000
    39 H11        -35.4897    20.4953    72.7723 H            1 GDP302   0.0000
    40 H12        -34.8910    21.6594    73.9066 H            1 GDP302   0.0000
@<TRIPOS>BOND
     1    1    2      ar
     2    1    3      ar
     3    1    4      ar
     4    1    5       1
     5    5    6       1
     6    6    7      ar
     7    6    8      ar
     8    6    9       1
     9    9   10       1
    10   10   11       1
    11   11   12       1
    12   11   13       1
    13   12   17       1
    14   13   14       1
    15   13   15       1
    16   15   16       1
    17   15   17       1
    18   17   18       1
    19   18   19       1
    20   18   28       1
    21   19   20       2
    22   20   21       1
    23   21   22       1
    24   21   28       2
    25   22   23       2
    26   22   24       1
    27   24   25       1
    28   25   26       1
    29   25   27       2
    30   27   28       1
    31   26   40       1
    32   26   39       1
    33   24   38       1
    34   10   29       1
    35   10   30       1
    36   11   31       1
    37   13   32       1
    38   14   33       1
    39   15   34       1
    40   16   35       1
    41   17   36       1
    42   19   37       1
@<TRIPOS>SUBSTRUCTURE
     1 GDP302      1 GROUP             4 B     GDP     0 **** GDP B 302
