@<TRIPOS>MOLECULE
4qny_ANP_1_ligand
   44    46     1     0     0
SMALL
NO_CHARGES


@<TRIPOS>ATOM
     1 PG          19.6430    46.7940    19.9500 P.3          1 ANP402   0.0000
     2 O1G         21.0540    46.3900    19.6600 O.co2        1 ANP402   0.0000
     3 O2G         19.1640    46.0780    21.2710 O.co2        1 ANP402  -1.0000
     4 O3G         19.5840    48.3600    20.1720 O.co2        1 ANP402  -1.0000
     5 PB          19.3640    45.5520    17.4170 P.3          1 ANP402   0.0000
     6 O1B         20.6050    46.2710    16.9990 O.co2        1 ANP402   0.0000
     7 O2B         18.3920    45.4940    16.2030 O.co2        1 ANP402  -1.0000
     8 N3B         18.6050    46.3710    18.6750 N.3          1 ANP402   0.0000
     9 PA          18.8200    42.8400    17.5800 P.3          1 ANP402   0.0000
    10 O1A         17.4760    43.2270    17.0930 O.co2        1 ANP402   0.0000
    11 O2A         18.7760    42.0290    18.8780 O.co2        1 ANP402  -1.0000
    12 O3A         19.7420    44.1090    17.8820 O.3          1 ANP402   0.0000
    13 O5'         19.5400    42.0250    16.4280 O.3          1 ANP402   0.0000
    14 C5'         19.5940    42.5070    15.0690 C.3          1 ANP402   0.0000
    15 C4'         19.3070    41.3620    14.1290 C.3          1 ANP402   0.0000
    16 O4'         20.1620    40.2440    14.4420 O.3          1 ANP402   0.0000
    17 C3'         17.8960    40.7950    14.1960 C.3          1 ANP402   0.0000
    18 O3'         16.9990    41.5590    13.3980 O.3          1 ANP402   0.0000
    19 C2'         18.0900    39.3810    13.6460 C.3          1 ANP402   0.0000
    20 O2'         18.0540    39.3610    12.2230 O.3          1 ANP402   0.0000
    21 C1'         19.4950    39.0280    14.1520 C.3          1 ANP402   0.0000
    22 N9          19.4950    38.2030    15.3550 N.pl3        1 ANP402   0.0000
    23 C8          19.4550    38.6340    16.6520 C.2          1 ANP402   0.0000
    24 N7          19.4620    37.6680    17.5440 N.2          1 ANP402   0.0000
    25 C5          19.5080    36.5210    16.7670 C.ar         1 ANP402   0.0000
    26 C6          19.5370    35.1500    17.1080 C.ar         1 ANP402   0.0000
    27 N6          19.5220    34.6950    18.3620 N.pl3        1 ANP402   0.0000
    28 N1          19.5820    34.2550    16.0950 N.ar         1 ANP402   0.0000
    29 C2          19.5950    34.7050    14.8370 C.ar         1 ANP402   0.0000
    30 N3          19.5720    35.9670    14.3980 N.ar         1 ANP402   0.0000
    31 C4          19.5280    36.8280    15.4200 C.ar         1 ANP402   0.0000
    32 H3B         17.8813    45.7853    19.0400 H            1 ANP402   0.0000
    33 H5'1        20.5042    42.8756    14.8801 H            1 ANP402   0.0000
    34 H5'2        18.9102    43.2253    14.9408 H            1 ANP402   0.0000
    35 H4'         19.4923    41.6585    13.1921 H            1 ANP402   0.0000
    36 H3'         17.5780    40.7607    15.1435 H            1 ANP402   0.0000
    37 H6          16.0813    41.1665    13.4593 H            1 ANP402   0.0000
    38 H2'         17.4086    38.7559    14.0267 H            1 ANP402   0.0000
    39 H8          17.1691    39.7032    11.9071 H            1 ANP402   0.0000
    40 H1'         19.9912    38.5487    13.4281 H            1 ANP402   0.0000
    41 H10         19.4231    39.6020    16.9011 H            1 ANP402   0.0000
    42 H11         19.5443    33.7107    18.5371 H            1 ANP402   0.0000
    43 H12         19.4884    35.3382    19.1269 H            1 ANP402   0.0000
    44 H13         19.6262    34.0014    14.1271 H            1 ANP402   0.0000
@<TRIPOS>BOND
     1    1    2      ar
     2    1    3      ar
     3    1    4      ar
     4    1    8       1
     5    5    6      ar
     6    5    7      ar
     7    5    8       1
     8    5   12       1
     9    9   10      ar
    10    9   11      ar
    11    9   12       1
    12    9   13       1
    13   13   14       1
    14   14   15       1
    15   15   16       1
    16   15   17       1
    17   16   21       1
    18   17   18       1
    19   17   19       1
    20   19   20       1
    21   19   21       1
    22   21   22       1
    23   22   23       1
    24   22   31       1
    25   23   24       2
    26   24   25       1
    27   25   26      ar
    28   25   31      ar
    29   26   27       1
    30   26   28      ar
    31   28   29      ar
    32   29   30      ar
    33   30   31      ar
    34   29   44       1
    35   27   43       1
    36   27   42       1
    37    8   32       1
    38   23   41       1
    39   14   33       1
    40   14   34       1
    41   15   35       1
    42   17   36       1
    43   18   37       1
    44   19   38       1
    45   20   39       1
    46   21   40       1
@<TRIPOS>SUBSTRUCTURE
     1 ANP402      1 GROUP             4 A     ANP     0 **** ANP A 402
