@<TRIPOS>MOLECULE
4i8p_NAD_2_ligand
   70    74     1     0     0
SMALL
NO_CHARGES


@<TRIPOS>ATOM
     1 PA          26.1780   -10.0380    22.2020 P.3          1 NAD601   0.0000
     2 O1A         26.7670   -11.2710    21.6460 O.co2        1 NAD601   0.0000
     3 O2A         24.6500   -10.0430    22.0910 O.co2        1 NAD601  -1.0000
     4 O5B         26.5800    -9.9370    23.7200 O.3          1 NAD601   0.0000
     5 C5B         26.3370    -8.7670    24.5340 C.3          1 NAD601   0.0000
     6 C4B         26.4980    -9.1930    25.9740 C.3          1 NAD601   0.0000
     7 O4B         25.5900   -10.2880    26.2510 O.3          1 NAD601   0.0000
     8 C3B         27.8900    -9.6870    26.3780 C.3          1 NAD601   0.0000
     9 O3B         28.2670    -9.2510    27.6850 O.3          1 NAD601   0.0000
    10 C2B         27.7470   -11.2070    26.2660 C.3          1 NAD601   0.0000
    11 O2B         28.6910   -11.9200    27.0510 O.3          1 NAD601   0.0000
    12 C1B         26.3130   -11.3950    26.7540 C.3          1 NAD601   0.0000
    13 N9A         25.6530   -12.6270    26.3250 N.pl3        1 NAD601   0.0000
    14 C8A         25.9180   -13.3730    25.2060 C.2          1 NAD601   0.0000
    15 N7A         25.2000   -14.4650    25.1070 N.2          1 NAD601   0.0000
    16 C5A         24.3940   -14.4320    26.2360 C.ar         1 NAD601   0.0000
    17 C6A         23.3730   -15.2900    26.7010 C.ar         1 NAD601   0.0000
    18 N6A         23.0290   -16.4340    26.1030 N.pl3        1 NAD601   0.0000
    19 N1A         22.7130   -14.9280    27.8240 N.ar         1 NAD601   0.0000
    20 C2A         23.0630   -13.7920    28.4380 C.ar         1 NAD601   0.0000
    21 N3A         24.0330   -12.9290    28.1190 N.ar         1 NAD601   0.0000
    22 C4A         24.6590   -13.3030    26.9930 C.ar         1 NAD601   0.0000
    23 O3          26.7190    -8.6920    21.5160 O.3          1 NAD601   0.0000
    24 PN          28.1520    -7.9950    21.3130 P.3          1 NAD601   0.0000
    25 O1N         28.8430    -8.6570    20.1830 O.co2        1 NAD601   0.0000
    26 O2N         28.8450    -7.9250    22.6170 O.co2        1 NAD601  -1.0000
    27 O5D         27.7650    -6.4960    20.9470 O.3          1 NAD601   0.0000
    28 C5D         27.4510    -6.0980    19.5980 C.3          1 NAD601   0.0000
    29 C4D         25.9530    -5.9670    19.4380 C.3          1 NAD601   0.0000
    30 O4D         25.4360    -4.9940    20.3770 O.3          1 NAD601   0.0000
    31 C3D         25.5080    -5.4550    18.0710 C.3          1 NAD601   0.0000
    32 O3D         24.3620    -6.1590    17.6040 O.3          1 NAD601   0.0000
    33 C2D         25.2120    -3.9860    18.3630 C.3          1 NAD601   0.0000
    34 O2D         24.3160    -3.3930    17.4330 O.3          1 NAD601   0.0000
    35 C1D         24.5650    -4.0820    19.7710 C.3          1 NAD601   0.0000
    36 N1N         24.7030    -2.7640    20.4700 N.ar         1 NAD601   1.0000
    37 C2N         23.4980    -2.0700    20.6980 C.ar         1 NAD601   0.0000
    38 C3N         23.5450    -0.8270    21.3030 C.ar         1 NAD601   0.0000
    39 C7N         22.2860    -0.0280    21.5680 C.2          1 NAD601   0.0000
    40 O7N         22.3563     1.0657    22.2143 O.2          1 NAD601   0.0000
    41 N7N         21.1640    -0.4396    20.9985 N.am         1 NAD601   0.0000
    42 C4N         24.7940    -0.2890    21.6360 C.ar         1 NAD601   0.0000
    43 C5N         25.9640    -0.9990    21.3830 C.ar         1 NAD601   0.0000
    44 C6N         25.8950    -2.2380    20.8100 C.ar         1 NAD601   0.0000
    45 H5B1        25.4100    -8.4260    24.3779 H            1 NAD601   0.0000
    46 H5B2        26.9977    -8.0501    24.3116 H            1 NAD601   0.0000
    47 H4B         26.2528    -8.4219    26.5616 H            1 NAD601   0.0000
    48 H3B         28.5637    -9.3658    25.7124 H            1 NAD601   0.0000
    49 H5          28.2747    -8.2514    27.7136 H            1 NAD601   0.0000
    50 H2B         27.8202   -11.4862    25.3086 H            1 NAD601   0.0000
    51 H7          29.5141   -12.0905    26.5092 H            1 NAD601   0.0000
    52 H1B         26.3055   -11.3571    27.7533 H            1 NAD601   0.0000
    53 H8A         26.5998   -13.1072    24.5245 H            1 NAD601   0.0000
    54 H6A1        22.2956   -16.9967    26.4844 H            1 NAD601   0.0000
    55 H6A2        23.5049   -16.7276    25.2740 H            1 NAD601   0.0000
    56 H2A         22.5249   -13.5558    29.2471 H            1 NAD601   0.0000
    57 H5D1        27.7939    -6.7876    18.9601 H            1 NAD601   0.0000
    58 H5D2        27.8840    -5.2181    19.4022 H            1 NAD601   0.0000
    59 H4D         25.5245    -6.8534    19.6130 H            1 NAD601   0.0000
    60 H3D         26.2555    -5.5334    17.4114 H            1 NAD601   0.0000
    61 H17         24.3737    -6.1891    16.6045 H            1 NAD601   0.0000
    62 H2D         26.0630    -3.4626    18.4071 H            1 NAD601   0.0000
    63 H19         24.4194    -3.8352    16.5421 H            1 NAD601   0.0000
    64 H1D         23.6203    -4.4086    19.7422 H            1 NAD601   0.0000
    65 H2N         22.6225    -2.4699    20.4266 H            1 NAD601   0.0000
    66 H7N1        20.3625     0.1581    20.9833 H            1 NAD601   0.0000
    67 H7N2        21.1181    -1.3483    20.5835 H            1 NAD601   0.0000
    68 H4N         24.8460     0.6151    22.0602 H            1 NAD601   0.0000
    69 H5N         26.8518    -0.6042    21.6195 H            1 NAD601   0.0000
    70 H6N         26.7337    -2.7563    20.6425 H            1 NAD601   0.0000
@<TRIPOS>BOND
     1    1    2      ar
     2    1    3      ar
     3    1    4       1
     4    1   23       1
     5    4    5       1
     6    5    6       1
     7    6    7       1
     8    6    8       1
     9    7   12       1
    10    8    9       1
    11    8   10       1
    12   10   11       1
    13   10   12       1
    14   12   13       1
    15   13   14       1
    16   13   22       1
    17   14   15       2
    18   15   16       1
    19   16   17      ar
    20   16   22      ar
    21   17   18       1
    22   17   19      ar
    23   19   20      ar
    24   20   21      ar
    25   21   22      ar
    26   23   24       1
    27   24   25      ar
    28   24   26      ar
    29   24   27       1
    30   27   28       1
    31   28   29       1
    32   29   30       1
    33   29   31       1
    34   30   35       1
    35   31   32       1
    36   31   33       1
    37   33   34       1
    38   33   35       1
    39   35   36       1
    40   36   37      ar
    41   36   44      ar
    42   37   38      ar
    43   38   39       1
    44   38   42      ar
    45   39   40       2
    46   39   41      am
    47   42   43      ar
    48   43   44      ar
    49   44   70       1
    50    5   45       1
    51    5   46       1
    52    6   47       1
    53    8   48       1
    54    9   49       1
    55   10   50       1
    56   11   51       1
    57   12   52       1
    58   14   53       1
    59   18   54       1
    60   18   55       1
    61   20   56       1
    62   43   69       1
    63   28   57       1
    64   28   58       1
    65   29   59       1
    66   31   60       1
    67   32   61       1
    68   33   62       1
    69   34   63       1
    70   35   64       1
    71   37   65       1
    72   41   66       1
    73   41   67       1
    74   42   68       1
@<TRIPOS>SUBSTRUCTURE
     1 NAD601      1 GROUP             4 B     NAD     0 **** NAD B 601
