@<TRIPOS>MOLECULE
4ih3_PDC_2_ligand
   15    15     1     0     0
SMALL
NO_CHARGES


@<TRIPOS>ATOM
     1 N1           6.1960   -21.9500    54.6780 N.ar         1 PDC402   0.0000
     2 C2           5.2520   -21.1920    54.1420 C.ar         1 PDC402   0.0000
     3 C3           4.0120   -21.6890    53.8110 C.ar         1 PDC402   0.0000
     4 C4           3.6620   -23.0290    54.0180 C.ar         1 PDC402   0.0000
     5 C5           4.5770   -23.8970    54.5670 C.ar         1 PDC402   0.0000
     6 C6           5.9100   -23.2960    54.9020 C.ar         1 PDC402   0.0000
     7 C7           5.4630   -19.6680    53.7860 C.2          1 PDC402   0.0000
     8 O1           5.9500   -18.8770    54.6340 O.co2        1 PDC402   0.0000
     9 O2           5.1110   -19.3390    52.6300 O.co2        1 PDC402  -1.0000
    10 C8           7.1210   -24.1580    55.5780 C.2          1 PDC402   0.0000
    11 O3           7.7360   -23.6540    56.5240 O.co2        1 PDC402   0.0000
    12 O4           7.4130   -25.2820    55.0730 O.co2        1 PDC402  -1.0000
    13 H1           3.3368   -21.0711    53.4082 H            1 PDC402   0.0000
    14 H2           2.7500   -23.3538    53.7676 H            1 PDC402   0.0000
    15 H3           4.3682   -24.8611    54.7313 H            1 PDC402   0.0000
@<TRIPOS>BOND
     1    1    2      ar
     2    1    6      ar
     3    2    3      ar
     4    2    7       1
     5    3    4      ar
     6    4    5      ar
     7    5    6      ar
     8    6   10       1
     9    7    8      ar
    10    7    9      ar
    11   10   11      ar
    12   10   12      ar
    13    3   13       1
    14    4   14       1
    15    5   15       1
@<TRIPOS>SUBSTRUCTURE
     1 PDC402      1 GROUP             4 B     PDC     0 **** PDC B 402
