@<TRIPOS>MOLECULE
1ea6_ADP_2_ligand
   40    42     1     0     0
SMALL
NO_CHARGES


@<TRIPOS>ATOM
     1 PB          40.8470    47.4900    -3.6070 P.3          1 ADP1366   0.0000
     2 O1B         39.8570    47.6560    -2.4460 O.co2        1 ADP1366   0.0000
     3 O2B         40.3470    46.6740    -4.7470 O.co2        1 ADP1366  -1.0000
     4 O3B         41.3930    48.8780    -4.0820 O.co2        1 ADP1366  -1.0000
     5 PA          43.2680    46.9120    -1.9180 P.3          1 ADP1366   0.0000
     6 O1A         43.8040    48.3140    -1.8760 O.co2        1 ADP1366   0.0000
     7 O2A         44.2620    45.8340    -2.0890 O.co2        1 ADP1366  -1.0000
     8 O3A         42.1620    46.7620    -3.1290 O.3          1 ADP1366   0.0000
     9 O5'         42.3390    46.6000    -0.6450 O.3          1 ADP1366   0.0000
    10 C5'         41.8320    45.2470    -0.7310 C.3          1 ADP1366   0.0000
    11 C4'         40.9830    44.6730     0.3470 C.3          1 ADP1366   0.0000
    12 O4'         41.5720    44.8510     1.6840 O.3          1 ADP1366   0.0000
    13 C3'         39.5500    45.1630     0.4240 C.3          1 ADP1366   0.0000
    14 O3'         38.7200    44.1650    -0.2210 O.3          1 ADP1366   0.0000
    15 C2'         39.2030    45.2720     1.9730 C.3          1 ADP1366   0.0000
    16 O2'         38.2610    44.2420     2.4250 O.3          1 ADP1366   0.0000
    17 C1'         40.5900    45.1310     2.6840 C.3          1 ADP1366   0.0000
    18 N9          41.0130    46.3800     3.4620 N.pl3        1 ADP1366   0.0000
    19 C8          42.0490    47.1710     3.2040 C.2          1 ADP1366   0.0000
    20 N7          42.1470    48.1470     4.0260 N.2          1 ADP1366   0.0000
    21 C5          41.0780    47.9830     4.9100 C.ar         1 ADP1366   0.0000
    22 C6          40.5920    48.7130     6.0690 C.ar         1 ADP1366   0.0000
    23 N6          41.2100    49.8440     6.5460 N.pl3        1 ADP1366   0.0000
    24 N1          39.4780    48.2340     6.7050 N.ar         1 ADP1366   1.0000
    25 C2          38.8650    47.1320     6.2490 C.ar         1 ADP1366   0.0000
    26 N3          39.2390    46.3950     5.1820 N.ar         1 ADP1366   0.0000
    27 C4          40.3560    46.8790     4.5530 C.ar         1 ADP1366   0.0000
    28 H5'1        42.6300    44.6498    -0.8118 H            1 ADP1366   0.0000
    29 H5'2        41.2932    45.1990    -1.5721 H            1 ADP1366   0.0000
    30 H4'         40.9397    43.6876     0.1826 H            1 ADP1366   0.0000
    31 H3'         39.4530    46.0509    -0.0256 H            1 ADP1366   0.0000
    32 H5          38.0534    43.8112     0.4351 H            1 ADP1366   0.0000
    33 H2'         38.8224    46.1766     2.1648 H            1 ADP1366   0.0000
    34 H7          37.4389    44.6791     2.7897 H            1 ADP1366   0.0000
    35 H1'         40.5482    44.3581     3.3172 H            1 ADP1366   0.0000
    36 H9          42.6850    47.0196     2.4473 H            1 ADP1366   0.0000
    37 H10         40.8411    50.3152     7.3472 H            1 ADP1366   0.0000
    38 H11         42.0286    50.1958     6.0919 H            1 ADP1366   0.0000
    39 H12         38.0532    46.8271     6.7471 H            1 ADP1366   0.0000
    40 H13         39.1211    48.7067     7.5107 H            1 ADP1366   0.0000
@<TRIPOS>BOND
     1    1    2      ar
     2    1    3      ar
     3    1    4      ar
     4    1    8       1
     5    5    6      ar
     6    5    7      ar
     7    5    8       1
     8    5    9       1
     9    9   10       1
    10   10   11       1
    11   11   12       1
    12   11   13       1
    13   12   17       1
    14   13   14       1
    15   13   15       1
    16   15   16       1
    17   15   17       1
    18   17   18       1
    19   18   19       1
    20   18   27       1
    21   19   20       2
    22   20   21       1
    23   21   22      ar
    24   21   27      ar
    25   22   23       1
    26   22   24      ar
    27   24   25      ar
    28   25   26      ar
    29   26   27      ar
    30   25   39       1
    31   23   38       1
    32   23   37       1
    33   10   28       1
    34   10   29       1
    35   11   30       1
    36   13   31       1
    37   14   32       1
    38   15   33       1
    39   16   34       1
    40   17   35       1
    41   19   36       1
    42   24   40       1
@<TRIPOS>SUBSTRUCTURE
     1 ADP1366     1 GROUP             4 B     ADP     0 **** ADP B1366
