@<TRIPOS>MOLECULE
4oaq_NDP_1_ligand
   73    77     1     0     0
SMALL
NO_CHARGES


@<TRIPOS>ATOM
     1 PA           4.9600   -11.7850   -12.2690 P.3          1 NDP401   0.0000
     2 O1A          4.0430   -10.7940   -12.9430 O.co2        1 NDP401   0.0000
     3 O2A          4.4570   -13.1570   -11.9340 O.co2        1 NDP401  -1.0000
     4 O5B          5.5870   -11.1470   -10.9370 O.3          1 NDP401   0.0000
     5 C5B          6.2120    -9.8710   -11.0330 C.3          1 NDP401   0.0000
     6 C4B          6.1250    -9.1560    -9.6960 C.3          1 NDP401   0.0000
     7 O4B          6.7060    -7.8620    -9.8440 O.3          1 NDP401   0.0000
     8 C3B          4.6990    -8.8810    -9.2790 C.3          1 NDP401   0.0000
     9 O3B          4.1830    -9.9910    -8.5410 O.3          1 NDP401   0.0000
    10 C2B          4.8250    -7.6280    -8.4290 C.3          1 NDP401   0.0000
    11 O2B          5.3390    -7.9750    -7.1460 O.3          1 NDP401   0.0000
    12 C1B          5.9540    -6.8970    -9.0970 C.3          1 NDP401   0.0000
    13 N9A          5.5720    -5.8980   -10.1050 N.pl3        1 NDP401   0.0000
    14 C8A          4.5260    -5.9180   -10.9550 C.2          1 NDP401   0.0000
    15 N7A          4.5560    -4.8260   -11.7650 N.2          1 NDP401   0.0000
    16 C5A          5.6300    -4.1010   -11.4270 C.ar         1 NDP401   0.0000
    17 C6A          6.2400    -2.8490   -11.8850 C.ar         1 NDP401   0.0000
    18 N6A          5.6570    -2.1210   -12.8780 N.pl3        1 NDP401   0.0000
    19 N1A          7.3760    -2.4540   -11.2510 N.ar         1 NDP401   0.0000
    20 C2A          7.9370    -3.1640   -10.2590 C.ar         1 NDP401   0.0000
    21 N3A          7.4310    -4.3250    -9.7960 N.ar         1 NDP401   0.0000
    22 C4A          6.2980    -4.8180   -10.3350 C.ar         1 NDP401   0.0000
    23 O3           6.2240   -11.9190   -13.2560 O.3          1 NDP401   0.0000
    24 PN           7.1990   -13.1980   -13.3210 P.3          1 NDP401   0.0000
    25 O1N          7.5220   -13.5640   -11.9080 O.co2        1 NDP401   0.0000
    26 O2N          6.6260   -14.2160   -14.2630 O.co2        1 NDP401  -1.0000
    27 O5D          8.4720   -12.5050   -14.0500 O.3          1 NDP401   0.0000
    28 C5D          9.2010   -11.5280   -13.3060 C.3          1 NDP401   0.0000
    29 C4D         10.3330   -10.9470   -14.1390 C.3          1 NDP401   0.0000
    30 O4D         11.3490   -11.9420   -14.3280 O.3          1 NDP401   0.0000
    31 C3D          9.8290   -10.5470   -15.5060 C.3          1 NDP401   0.0000
    32 O3D         10.4640    -9.3030   -15.8450 O.3          1 NDP401   0.0000
    33 C2D         10.3420   -11.6460   -16.4050 C.3          1 NDP401   0.0000
    34 O2D         10.5450   -11.1730   -17.7400 O.3          1 NDP401   0.0000
    35 C1D         11.6490   -11.9980   -15.7200 C.3          1 NDP401   0.0000
    36 N1N         12.2200   -13.3190   -16.0180 N.ar         1 NDP401   1.0000
    37 C2N         13.5590   -13.4130   -16.1340 C.ar         1 NDP401   0.0000
    38 C3N         14.1790   -14.6300   -16.4060 C.ar         1 NDP401   0.0000
    39 C7N         15.6610   -14.6830   -16.5080 C.2          1 NDP401   0.0000
    40 O7N         16.2120   -15.6320   -17.0640 O.2          1 NDP401   0.0000
    41 N7N         16.3410   -13.6870   -15.9170 N.am         1 NDP401   0.0000
    42 C4N         13.4030   -15.7750   -16.5180 C.ar         1 NDP401   0.0000
    43 C5N         12.0240   -15.6560   -16.3800 C.ar         1 NDP401   0.0000
    44 C6N         11.4470   -14.4090   -16.1230 C.ar         1 NDP401   0.0000
    45 P2B          4.8170    -7.2840    -5.7720 P.3          1 NDP401   0.0000
    46 O1X          3.3050    -7.3420    -5.9140 O.co2        1 NDP401   0.0000
    47 O2X          5.3740    -8.1380    -4.6590 O.co2        1 NDP401  -1.0000
    48 O3X          5.3870    -5.8770    -5.7830 O.co2        1 NDP401  -1.0000
    49 H5B1         5.7491    -9.3260   -11.7321 H            1 NDP401   0.0000
    50 H5B2         7.1725    -9.9895   -11.2846 H            1 NDP401   0.0000
    51 H4B          6.6032    -9.6762    -8.9884 H            1 NDP401   0.0000
    52 H3B          4.1300    -8.7016   -10.0815 H            1 NDP401   0.0000
    53 H5           4.9301   -10.4442    -8.0547 H            1 NDP401   0.0000
    54 H2B          3.9805    -7.0943    -8.3848 H            1 NDP401   0.0000
    55 H1B          6.5392    -6.4735    -8.4055 H            1 NDP401   0.0000
    56 H8A          3.8279    -6.6334   -10.9856 H            1 NDP401   0.0000
    57 H6A1         6.0782    -1.2679   -13.1858 H            1 NDP401   0.0000
    58 H6A2         4.8078    -2.4398   -13.2991 H            1 NDP401   0.0000
    59 H2A          8.7750    -2.8130    -9.8412 H            1 NDP401   0.0000
    60 H5D1         9.5833   -11.9574   -12.4878 H            1 NDP401   0.0000
    61 H5D2         8.5807   -10.7912   -13.0369 H            1 NDP401   0.0000
    62 H4D         10.7209   -10.1508   -13.6747 H            1 NDP401   0.0000
    63 H3D          8.8318   -10.4774   -15.5316 H            1 NDP401   0.0000
    64 H16         10.5703    -9.2426   -16.8375 H            1 NDP401   0.0000
    65 H2D          9.7182   -12.4276   -16.3984 H            1 NDP401   0.0000
    66 H18         10.4017   -11.9236   -18.3850 H            1 NDP401   0.0000
    67 H1D         12.3274   -11.2953   -15.9344 H            1 NDP401   0.0000
    68 H2N         14.1191   -12.5921   -16.0225 H            1 NDP401   0.0000
    69 H7N1        17.3402   -13.6727   -15.9545 H            1 NDP401   0.0000
    70 H7N2        15.8481   -12.9597   -15.4394 H            1 NDP401   0.0000
    71 H4N         13.8251   -16.6644   -16.6937 H            1 NDP401   0.0000
    72 H5N         11.4432   -16.4656   -16.4650 H            1 NDP401   0.0000
    73 H6N         10.4557   -14.3300   -16.0173 H            1 NDP401   0.0000
@<TRIPOS>BOND
     1    1    2      ar
     2    1    3      ar
     3    1    4       1
     4    1   23       1
     5    4    5       1
     6    5    6       1
     7    6    7       1
     8    6    8       1
     9    7   12       1
    10    8    9       1
    11    8   10       1
    12   10   11       1
    13   10   12       1
    14   11   45       1
    15   12   13       1
    16   13   14       1
    17   13   22       1
    18   14   15       2
    19   15   16       1
    20   16   17      ar
    21   16   22      ar
    22   17   18       1
    23   17   19      ar
    24   19   20      ar
    25   20   21      ar
    26   21   22      ar
    27   23   24       1
    28   24   25      ar
    29   24   26      ar
    30   24   27       1
    31   27   28       1
    32   28   29       1
    33   29   30       1
    34   29   31       1
    35   30   35       1
    36   31   32       1
    37   31   33       1
    38   33   34       1
    39   33   35       1
    40   35   36       1
    41   36   37      ar
    42   36   44      ar
    43   37   38      ar
    44   38   39       1
    45   38   42      ar
    46   39   40       2
    47   39   41      am
    48   42   43      ar
    49   43   44      ar
    50   45   46      ar
    51   45   47      ar
    52   45   48      ar
    53   43   72       1
    54    5   49       1
    55    5   50       1
    56    6   51       1
    57    8   52       1
    58    9   53       1
    59   10   54       1
    60   12   55       1
    61   14   56       1
    62   18   57       1
    63   18   58       1
    64   20   59       1
    65   44   73       1
    66   28   60       1
    67   28   61       1
    68   29   62       1
    69   31   63       1
    70   32   64       1
    71   33   65       1
    72   34   66       1
    73   35   67       1
    74   37   68       1
    75   41   69       1
    76   41   70       1
    77   42   71       1
@<TRIPOS>SUBSTRUCTURE
     1 NDP401      1 GROUP             4 A     NDP     0 **** NDP A 401
