@<TRIPOS>MOLECULE
2fg5_GNP_1_ligand
   45    47     1     0     0
SMALL
NO_CHARGES


@<TRIPOS>ATOM
     1 PG          19.6190     3.9300    -5.1840 P.3          1 GNP302   0.0000
     2 O1G         18.6620     4.8130    -5.9720 O.co2        1 GNP302   0.0000
     3 O2G         21.0540     4.0580    -5.6380 O.co2        1 GNP302  -1.0000
     4 O3G         19.0420     2.5240    -5.2460 O.co2        1 GNP302  -1.0000
     5 N3B         19.5570     4.3590    -3.6250 N.3          1 GNP302   0.0000
     6 PB          20.0620     3.4480    -2.4240 P.3          1 GNP302   0.0000
     7 O1B         19.3270     2.1710    -2.3620 O.co2        1 GNP302   0.0000
     8 O2B         21.5230     3.3620    -2.5420 O.co2        1 GNP302  -1.0000
     9 O3A         19.7430     4.1710    -1.1150 O.3          1 GNP302   0.0000
    10 PA          20.5730     5.3550    -0.6010 P.3          1 GNP302   0.0000
    11 O1A         21.7610     4.8660     0.1570 O.co2        1 GNP302   0.0000
    12 O2A         20.8220     6.2780    -1.7080 O.co2        1 GNP302  -1.0000
    13 O5'         19.7050     6.0820     0.4890 O.3          1 GNP302   0.0000
    14 C5'         18.4040     6.5370     0.2030 C.3          1 GNP302   0.0000
    15 C4'         17.9460     7.5130     1.2740 C.3          1 GNP302   0.0000
    16 O4'         17.8220     6.8160     2.5490 O.3          1 GNP302   0.0000
    17 C3'         18.9010     8.6680     1.5250 C.3          1 GNP302   0.0000
    18 O3'         18.1890     9.8100     1.8880 O.3          1 GNP302   0.0000
    19 C2'         19.7240     8.1630     2.6980 C.3          1 GNP302   0.0000
    20 O2'         20.3710     9.1760     3.4520 O.3          1 GNP302   0.0000
    21 C1'         18.6500     7.4460     3.5130 C.3          1 GNP302   0.0000
    22 N9          19.1960     6.4290     4.4030 N.pl3        1 GNP302   0.0000
    23 C8          20.0880     5.4360     4.0670 C.2          1 GNP302   0.0000
    24 N7          20.4300     4.6740     5.0680 N.2          1 GNP302   0.0000
    25 C5          19.7080     5.1880     6.1390 C.2          1 GNP302   0.0000
    26 C6          19.6530     4.7720     7.4840 C.2          1 GNP302   0.0000
    27 O6          20.2410     3.8370     8.0310 O.2          1 GNP302   0.0000
    28 N1          18.8120     5.5560     8.2460 N.pl3        1 GNP302   0.0000
    29 C2          18.0950     6.6240     7.7750 C.2          1 GNP302   0.0000
    30 N2          17.3430     7.2520     8.6870 N.pl3        1 GNP302   0.0000
    31 N3          18.1280     7.0410     6.5060 N.2          1 GNP302   0.0000
    32 C4          18.9510     6.2790     5.7450 C.2          1 GNP302   0.0000
    33 H3B         20.0808     5.2082    -3.5580 H            1 GNP302   0.0000
    34 H5'1        17.7789     5.7569     0.1770 H            1 GNP302   0.0000
    35 H5'2        18.4017     6.9957    -0.6856 H            1 GNP302   0.0000
    36 H4'         17.0523     7.8809     1.0170 H            1 GNP302   0.0000
    37 H3'         19.4777     8.8402     0.7264 H            1 GNP302   0.0000
    38 H6          18.8268    10.5628     2.0505 H            1 GNP302   0.0000
    39 H2'         20.3997     7.5005     2.3748 H            1 GNP302   0.0000
    40 H8          20.9959     9.6846     2.8597 H            1 GNP302   0.0000
    41 H1'         18.1186     8.1106     4.0383 H            1 GNP302   0.0000
    42 H10         20.4414     5.3106     3.1400 H            1 GNP302   0.0000
    43 H11         18.7187     5.3276     9.2151 H            1 GNP302   0.0000
    44 H12         16.7900     8.0416     8.4211 H            1 GNP302   0.0000
    45 H13         17.3342     6.9316     9.6342 H            1 GNP302   0.0000
@<TRIPOS>BOND
     1    1    2      ar
     2    1    3      ar
     3    1    4      ar
     4    1    5       1
     5    5    6       1
     6    6    7      ar
     7    6    8      ar
     8    6    9       1
     9    9   10       1
    10   10   11      ar
    11   10   12      ar
    12   10   13       1
    13   13   14       1
    14   14   15       1
    15   15   16       1
    16   15   17       1
    17   16   21       1
    18   17   18       1
    19   17   19       1
    20   19   20       1
    21   19   21       1
    22   21   22       1
    23   22   23       1
    24   22   32       1
    25   23   24       2
    26   24   25       1
    27   25   26       1
    28   25   32       2
    29   26   27       2
    30   26   28       1
    31   28   29       1
    32   29   30       1
    33   29   31       2
    34   31   32       1
    35   30   45       1
    36   30   44       1
    37    5   33       1
    38   28   43       1
    39   23   42       1
    40   14   34       1
    41   14   35       1
    42   15   36       1
    43   17   37       1
    44   18   38       1
    45   19   39       1
    46   20   40       1
    47   21   41       1
@<TRIPOS>SUBSTRUCTURE
     1 GNP302      1 GROUP             4 A     GNP     0 **** GNP A 302
