@<TRIPOS>MOLECULE
3epp_SFG_1_ligand
   51    53     1     0     0
SMALL
NO_CHARGES


@<TRIPOS>ATOM
     1 N            2.3320    -3.2960    34.2420 N.4          1 SFG401   1.0000
     2 CA           3.6010    -3.9190    34.7580 C.3          1 SFG401   0.0000
     3 C            4.5800    -2.8700    35.1810 C.2          1 SFG401   0.0000
     4 O            4.7170    -1.8380    34.5060 O.co2        1 SFG401   0.0000
     5 OXT          5.2920    -3.0320    36.1770 O.co2        1 SFG401  -1.0000
     6 CB           4.3620    -4.6100    33.6360 C.3          1 SFG401   0.0000
     7 CG           4.3500    -6.1130    33.4950 C.3          1 SFG401   0.0000
     8 CD           4.5860    -6.3480    31.9910 C.3          1 SFG401   0.0000
     9 NE           5.9820    -6.5520    31.6470 N.4          1 SFG401   1.0000
    10 C5'          3.7560    -7.4690    31.3600 C.3          1 SFG401   0.0000
    11 C4'          2.5650    -7.8610    32.1950 C.3          1 SFG401   0.0000
    12 O4'          1.4190    -8.0800    31.3770 O.3          1 SFG401   0.0000
    13 C3'          2.8460    -9.1260    32.9730 C.3          1 SFG401   0.0000
    14 O3'          2.2490    -8.9440    34.2650 O.3          1 SFG401   0.0000
    15 C2'          2.0800   -10.2010    32.2360 C.3          1 SFG401   0.0000
    16 O2'          1.6010   -11.1330    33.1970 O.3          1 SFG401   0.0000
    17 C1'          0.9110    -9.3870    31.7260 C.3          1 SFG401   0.0000
    18 N9           0.2170    -9.9830    30.5770 N.pl3        1 SFG401   0.0000
    19 C8           0.7540   -10.6030    29.5010 C.2          1 SFG401   0.0000
    20 N7          -0.2490   -10.9740    28.6480 N.2          1 SFG401   0.0000
    21 C5          -1.4250   -10.5590    29.1730 C.ar         1 SFG401   0.0000
    22 C6          -2.8540   -10.6400    28.8080 C.ar         1 SFG401   0.0000
    23 N6          -3.2500   -11.2520    27.6480 N.pl3        1 SFG401   0.0000
    24 N1          -3.7380   -10.0740    29.6610 N.ar         1 SFG401   0.0000
    25 C2          -3.3510    -9.4740    30.7970 C.ar         1 SFG401   0.0000
    26 N3          -2.0870    -9.3860    31.2060 N.ar         1 SFG401   0.0000
    27 C4          -1.1060    -9.9050    30.4490 C.ar         1 SFG401   0.0000
    28 H1           2.4120    -3.1438    33.2569 H            1 SFG401   0.0000
    29 H2           1.5624    -3.9082    34.4233 H            1 SFG401   0.0000
    30 HA           3.4102    -4.5543    35.5064 H            1 SFG401   0.0000
    31 HB1          5.3202    -4.3421    33.7361 H            1 SFG401   0.0000
    32 HB2          4.0007    -4.2418    32.7794 H            1 SFG401   0.0000
    33 HG1          3.4685    -6.4897    33.7796 H            1 SFG401   0.0000
    34 HG2          5.0804    -6.5268    34.0384 H            1 SFG401   0.0000
    35 HD           4.3076    -5.5046    31.5315 H            1 SFG401   0.0000
    36 HE1          6.0645    -6.6980    30.6612 H            1 SFG401   0.0000
    37 HE2          6.5114    -5.7454    31.9100 H            1 SFG401   0.0000
    38 H5'1         4.3411    -8.2715    31.2429 H            1 SFG401   0.0000
    39 H5'2         3.4308    -7.1603    30.4662 H            1 SFG401   0.0000
    40 H4'          2.3655    -7.1230    32.8396 H            1 SFG401   0.0000
    41 H3'          3.8238    -9.3276    33.0309 H            1 SFG401   0.0000
    42 H15          1.2653    -8.7978    34.1601 H            1 SFG401   0.0000
    43 H2'          2.6098   -10.6290    31.5038 H            1 SFG401   0.0000
    44 H17          0.6959   -10.8495    33.5140 H            1 SFG401   0.0000
    45 H1'          0.2525    -9.2804    32.4710 H            1 SFG401   0.0000
    46 H19          1.7297   -10.7645    29.3527 H            1 SFG401   0.0000
    47 H20         -4.2211   -11.2993    27.4139 H            1 SFG401   0.0000
    48 H21         -2.5680   -11.6514    27.0354 H            1 SFG401   0.0000
    49 H22         -4.0583    -9.0662    31.3744 H            1 SFG401   0.0000
    50 H23          2.1784    -2.4220    34.7029 H            1 SFG401   0.0000
    51 HE3          6.3314    -7.3531    32.1330 H            1 SFG401   0.0000
@<TRIPOS>BOND
     1    1    2       1
     2    2    3       1
     3    2    6       1
     4    3    4      ar
     5    3    5      ar
     6    6    7       1
     7    7    8       1
     8    8    9       1
     9    8   10       1
    10   10   11       1
    11   11   12       1
    12   11   13       1
    13   12   17       1
    14   13   14       1
    15   13   15       1
    16   15   16       1
    17   15   17       1
    18   17   18       1
    19   18   19       1
    20   18   27       1
    21   19   20       2
    22   20   21       1
    23   21   22      ar
    24   21   27      ar
    25   22   23       1
    26   22   24      ar
    27   24   25      ar
    28   25   26      ar
    29   26   27      ar
    30    1   28       1
    31    1   29       1
    32    2   30       1
    33    1   50       1
    34    6   31       1
    35    6   32       1
    36    7   33       1
    37    7   34       1
    38    8   35       1
    39    9   36       1
    40    9   37       1
    41   10   38       1
    42   10   39       1
    43   11   40       1
    44   13   41       1
    45   14   42       1
    46   15   43       1
    47   16   44       1
    48   17   45       1
    49   19   46       1
    50   23   47       1
    51   23   48       1
    52   25   49       1
    53    9   51       1
@<TRIPOS>SUBSTRUCTURE
     1 SFG401      1 GROUP             4 A     SFG     0 **** SFG A 401
