@<TRIPOS>MOLECULE
4y8w_STR_3_ligand
   53    56     1     0     0
SMALL
NO_CHARGES


@<TRIPOS>ATOM
     1 C1         -68.7570    11.2730    31.2620 C.3          1 STR603   0.0000
     2 C2         -69.7930    10.2130    31.6310 C.3          1 STR603   0.0000
     3 C3         -69.2980     8.8510    31.2070 C.2          1 STR603   0.0000
     4 O3         -70.0970     8.0060    30.8610 O.2          1 STR603   0.0000
     5 C4         -67.8530     8.5420    31.2100 C.2          1 STR603   0.0000
     6 C5         -66.9360     9.4950    31.4730 C.2          1 STR603   0.0000
     7 C6         -65.4840     9.0490    31.5390 C.3          1 STR603   0.0000
     8 C7         -64.6200     9.9780    30.6850 C.3          1 STR603   0.0000
     9 C8         -64.8560    11.4510    31.0320 C.3          1 STR603   0.0000
    10 C9         -66.3490    11.8370    30.8350 C.3          1 STR603   0.0000
    11 C10        -67.3090    10.9690    31.6920 C.3          1 STR603   0.0000
    12 C11        -66.6220    13.3640    30.9030 C.3          1 STR603   0.0000
    13 C12        -65.5730    14.2710    30.2310 C.3          1 STR603   0.0000
    14 C13        -64.1290    13.8940    30.5700 C.3          1 STR603   0.0000
    15 C14        -63.9550    12.4110    30.2360 C.3          1 STR603   0.0000
    16 C15        -62.4520    12.1380    30.1570 C.3          1 STR603   0.0000
    17 C16        -61.9040    13.4580    29.6180 C.3          1 STR603   0.0000
    18 C17        -63.0690    14.4710    29.6210 C.3          1 STR603   0.0000
    19 C18        -63.8320    14.2700    32.0450 C.3          1 STR603   0.0000
    20 C19        -67.1690    11.2600    33.2000 C.3          1 STR603   0.0000
    21 C20        -62.6570    15.9110    29.8590 C.2          1 STR603   0.0000
    22 O20        -63.5210    16.7800    29.8530 O.2          1 STR603   0.0000
    23 C21        -61.2140    16.2880    30.0710 C.3          1 STR603   0.0000
    24 H1         -69.0311    12.1334    31.6917 H            1 STR603   0.0000
    25 H2         -68.7665    11.3791    30.2677 H            1 STR603   0.0000
    26 H3         -70.6548    10.4137    31.1651 H            1 STR603   0.0000
    27 H4         -69.9392    10.2208    32.6202 H            1 STR603   0.0000
    28 H5         -67.5498     7.6096    31.0135 H            1 STR603   0.0000
    29 H6         -65.4076     8.1135    31.1939 H            1 STR603   0.0000
    30 H7         -65.1692     9.0811    32.4876 H            1 STR603   0.0000
    31 H8         -64.8431     9.8326    29.7211 H            1 STR603   0.0000
    32 H9         -63.6569     9.7588    30.8410 H            1 STR603   0.0000
    33 H10        -64.6400    11.5700    32.0011 H            1 STR603   0.0000
    34 H11        -66.5540    11.5843    29.8894 H            1 STR603   0.0000
    35 H12        -66.6759    13.6220    31.8676 H            1 STR603   0.0000
    36 H13        -67.5027    13.5368    30.4620 H            1 STR603   0.0000
    37 H14        -65.7320    15.2124    30.5286 H            1 STR603   0.0000
    38 H15        -65.6911    14.2102    29.2399 H            1 STR603   0.0000
    39 H16        -64.2741    12.3283    29.2919 H            1 STR603   0.0000
    40 H17        -62.2543    11.3826    29.5322 H            1 STR603   0.0000
    41 H18        -62.0743    11.9316    31.0596 H            1 STR603   0.0000
    42 H19        -61.5617    13.3322    28.6869 H            1 STR603   0.0000
    43 H20        -61.1631    13.7862    30.2040 H            1 STR603   0.0000
    44 H21        -63.4680    14.4417    28.7045 H            1 STR603   0.0000
    45 H22        -62.8887    14.0243    32.2682 H            1 STR603   0.0000
    46 H23        -63.9586    15.2540    32.1701 H            1 STR603   0.0000
    47 H24        -64.4571    13.7741    32.6478 H            1 STR603   0.0000
    48 H25        -66.2322    11.0662    33.4913 H            1 STR603   0.0000
    49 H26        -67.3803    12.2216    33.3749 H            1 STR603   0.0000
    50 H27        -67.8037    10.6809    33.7116 H            1 STR603   0.0000
    51 H28        -61.1446    17.2758    30.2104 H            1 STR603   0.0000
    52 H29        -60.8600    15.8121    30.8761 H            1 STR603   0.0000
    53 H30        -60.6796    16.0264    29.2673 H            1 STR603   0.0000
@<TRIPOS>BOND
     1    1    2       1
     2    1   11       1
     3    2    3       1
     4    3    4       2
     5    3    5       1
     6    5    6       2
     7    6    7       1
     8    6   11       1
     9    7    8       1
    10    8    9       1
    11    9   10       1
    12    9   15       1
    13   10   11       1
    14   10   12       1
    15   11   20       1
    16   12   13       1
    17   13   14       1
    18   14   15       1
    19   14   18       1
    20   14   19       1
    21   15   16       1
    22   16   17       1
    23   17   18       1
    24   18   21       1
    25   21   22       2
    26   21   23       1
    27    1   24       1
    28    1   25       1
    29    2   26       1
    30    2   27       1
    31    5   28       1
    32    7   29       1
    33    7   30       1
    34    8   31       1
    35    8   32       1
    36    9   33       1
    37   10   34       1
    38   12   35       1
    39   12   36       1
    40   13   37       1
    41   13   38       1
    42   15   39       1
    43   16   40       1
    44   16   41       1
    45   17   42       1
    46   17   43       1
    47   18   44       1
    48   19   45       1
    49   19   46       1
    50   19   47       1
    51   20   48       1
    52   20   49       1
    53   20   50       1
    54   23   51       1
    55   23   52       1
    56   23   53       1
@<TRIPOS>SUBSTRUCTURE
     1 STR603      1 GROUP             4 C     STR     0 **** STR C 603
