@<TRIPOS>MOLECULE
2y05_RAL_1_ligand
   62    66     1     0     0
SMALL
NO_CHARGES


@<TRIPOS>ATOM
     1 C1          46.8040    49.3050    16.4720 C.ar         1 RAL801   0.0000
     2 C2          47.8280    50.2430    16.4390 C.ar         1 RAL801   0.0000
     3 C3          47.9120    51.1390    15.3890 C.ar         1 RAL801   0.0000
     4 O3          48.8870    52.0760    15.3840 O.3          1 RAL801   0.0000
     5 C4          46.9980    51.1060    14.3580 C.ar         1 RAL801   0.0000
     6 C5          45.9890    50.1690    14.4050 C.ar         1 RAL801   0.0000
     7 S6          44.7780    49.8770    13.3480 S.3          1 RAL801   0.0000
     8 C7          44.0600    48.6090    14.1750 C.2          1 RAL801   0.0000
     9 C8          42.8500    48.0600    13.7850 C.ar         1 RAL801   0.0000
    10 C9          41.8330    48.4570    14.6610 C.ar         1 RAL801   0.0000
    11 C10         40.5020    48.1070    14.4710 C.ar         1 RAL801   0.0000
    12 C11         40.1670    47.3870    13.3400 C.ar         1 RAL801   0.0000
    13 O11         38.8700    47.0360    13.1190 O.3          1 RAL801   0.0000
    14 C12         41.1640    47.0410    12.4430 C.ar         1 RAL801   0.0000
    15 C13         42.5060    47.3850    12.6480 C.ar         1 RAL801   0.0000
    16 C14         45.8690    49.2570    15.4630 C.ar         1 RAL801   0.0000
    17 C15         44.7690    48.4110    15.3360 C.2          1 RAL801   0.0000
    18 C16         44.4210    47.3410    16.3750 C.2          1 RAL801   0.0000
    19 O16         44.3730    46.1640    16.0310 O.2          1 RAL801   0.0000
    20 C17         44.2430    47.7390    17.8530 C.ar         1 RAL801   0.0000
    21 C18         44.1810    49.0770    18.2940 C.ar         1 RAL801   0.0000
    22 C19         44.0590    49.3660    19.6730 C.ar         1 RAL801   0.0000
    23 C20         43.9930    48.3310    20.6180 C.ar         1 RAL801   0.0000
    24 C21         44.0630    47.0160    20.1580 C.ar         1 RAL801   0.0000
    25 C22         44.1840    46.7230    18.8040 C.ar         1 RAL801   0.0000
    26 O23         43.8710    48.5170    21.9800 O.3          1 RAL801   0.0000
    27 C24         43.1460    49.7240    22.3600 C.3          1 RAL801   0.0000
    28 C25         42.3220    49.6520    23.6580 C.3          1 RAL801   0.0000
    29 N26         43.1390    49.6670    24.8770 N.4          1 RAL801   1.0000
    30 C27         44.0900    48.5230    24.8870 C.3          1 RAL801   0.0000
    31 C28         44.7120    48.2140    26.2840 C.3          1 RAL801   0.0000
    32 C29         44.2080    49.1170    27.4130 C.3          1 RAL801   0.0000
    33 C30         42.6890    49.1970    27.3760 C.3          1 RAL801   0.0000
    34 C31         42.1480    49.6130    25.9860 C.3          1 RAL801   0.0000
    35 H1          46.7457    48.6601    17.2341 H            1 RAL801   0.0000
    36 H2          48.5047    50.2704    17.1748 H            1 RAL801   0.0000
    37 H3          49.5432    52.1188    16.1374 H            1 RAL801   0.0000
    38 H4          47.0656    51.7472    13.5936 H            1 RAL801   0.0000
    39 H5          42.0741    49.0148    15.4552 H            1 RAL801   0.0000
    40 H6          39.8033    48.3697    15.1365 H            1 RAL801   0.0000
    41 H7          38.6254    46.5150    12.3012 H            1 RAL801   0.0000
    42 H8          40.9171    46.5280    11.6209 H            1 RAL801   0.0000
    43 H9          43.2017    47.1404    11.9726 H            1 RAL801   0.0000
    44 H10         44.2234    49.8234    17.6299 H            1 RAL801   0.0000
    45 H11         44.0194    50.3176    19.9776 H            1 RAL801   0.0000
    46 H12         44.0253    46.2657    20.8180 H            1 RAL801   0.0000
    47 H13         44.2293    45.7687    18.5087 H            1 RAL801   0.0000
    48 H14         42.5187    49.9487    21.6143 H            1 RAL801   0.0000
    49 H15         43.8153    50.4595    22.4657 H            1 RAL801   0.0000
    50 H16         41.7878    48.8067    23.6464 H            1 RAL801   0.0000
    51 H17         41.7031    50.4371    23.6830 H            1 RAL801   0.0000
    52 H18         44.8344    48.7296    24.2520 H            1 RAL801   0.0000
    53 H19         43.6020    47.7079    24.5747 H            1 RAL801   0.0000
    54 H20         45.7038    48.3221    26.2159 H            1 RAL801   0.0000
    55 H21         44.4954    47.2668    26.5205 H            1 RAL801   0.0000
    56 H22         44.5908    50.0339    27.2998 H            1 RAL801   0.0000
    57 H23         44.4985    48.7408    28.2928 H            1 RAL801   0.0000
    58 H24         42.3872    49.8697    28.0515 H            1 RAL801   0.0000
    59 H25         42.3153    48.2993    27.6095 H            1 RAL801   0.0000
    60 H26         41.4382    48.9577    25.7276 H            1 RAL801   0.0000
    61 H27         41.7440    50.5232    26.0771 H            1 RAL801   0.0000
    62 H28         43.6491    50.5257    24.9265 H            1 RAL801   0.0000
@<TRIPOS>BOND
     1    1    2      ar
     2    1   16      ar
     3    2    3      ar
     4    3    4       1
     5    3    5      ar
     6    5    6      ar
     7    6    7       1
     8    6   16      ar
     9    7    8       1
    10    8    9       1
    11    8   17       2
    12    9   10      ar
    13    9   15      ar
    14   10   11      ar
    15   11   12      ar
    16   12   13       1
    17   12   14      ar
    18   14   15      ar
    19   16   17       1
    20   17   18       1
    21   18   19       2
    22   18   20       1
    23   20   21      ar
    24   20   25      ar
    25   21   22      ar
    26   22   23      ar
    27   23   24      ar
    28   23   26       1
    29   24   25      ar
    30   26   27       1
    31   27   28       1
    32   28   29       1
    33   29   30       1
    34   29   34       1
    35   30   31       1
    36   31   32       1
    37   32   33       1
    38   33   34       1
    39    1   35       1
    40    2   36       1
    41    4   37       1
    42    5   38       1
    43   10   39       1
    44   11   40       1
    45   13   41       1
    46   14   42       1
    47   15   43       1
    48   21   44       1
    49   22   45       1
    50   24   46       1
    51   25   47       1
    52   27   48       1
    53   27   49       1
    54   28   50       1
    55   28   51       1
    56   30   52       1
    57   30   53       1
    58   31   54       1
    59   31   55       1
    60   32   56       1
    61   32   57       1
    62   33   58       1
    63   33   59       1
    64   34   60       1
    65   34   61       1
    66   29   62       1
@<TRIPOS>SUBSTRUCTURE
     1 RAL801      1 GROUP             4 A     RAL     0 **** RAL A 801
