@<TRIPOS>MOLECULE
./coach420/2fv0/ligand.pdb
 44 47 0 0 0
SMALL
GASTEIGER

@<TRIPOS>ATOM
      1  C2       -31.3250 -133.7220  187.0550 C.3   401  BGC401      0.2403
      2  C3       -30.3020 -132.8330  186.3470 C.3   401  BGC401      0.1859
      3  C4       -28.9090 -133.1380  186.9060 C.3   401  BGC401      0.2113
      4  C5       -28.6200 -134.6410  186.8600 C.3   401  BGC401      0.1835
      5  C6       -27.2620 -134.9370  187.4990 C.3   401  BGC401      0.2142
      6  C1       -30.9160 -135.1930  186.9740 C.3   401  BGC401      0.3022
      7  O1       -31.8770 -136.0020  187.6600 O.3   401  BGC401     -0.1869
      8  O2       -32.6070 -133.5380  186.4470 O.3   401  BGC401     -0.2149
      9  O3       -30.6740 -131.4590  186.5410 O.3   401  BGC401     -0.3255
     10  O4       -27.9170 -132.4260  186.1610 O.3   401  BGC401     -0.2177
     11  O5       -29.6250 -135.3740  187.5780 O.3   401  BGC401     -0.3236
     12  O6       -27.3040 -134.5870  188.8850 O.3   401  BGC401     -0.2176
     13  C1       -30.4950 -130.6200  185.3880 C.3   402  RAM402      0.2695
     14  C2       -30.8310 -131.3550  184.0880 C.3   402  RAM402      0.2404
     15  C3       -31.4250 -130.3980  183.0550 C.3   402  RAM402      0.2166
     16  C4       -30.7690 -129.0200  183.1870 C.3   402  RAM402      0.1778
     17  C5       -31.0290 -128.4330  184.5640 C.3   402  RAM402      0.1476
     18  C6       -29.7990 -127.6460  185.0200 C.3   402  RAM402      0.0348
     19  O2       -29.6320 -131.9260  183.5530 O.3   402  RAM402     -0.2149
     20  O3       -31.1770 -130.9090  181.7430 O.3   402  RAM402     -0.2175
     21  O4       -31.1830 -128.0890  182.1740 O.3   402  RAM402     -0.3258
     22  O5       -31.3260 -129.4560  185.5290 O.3   402  RAM402     -0.3285
     23  C2       -33.0410 -126.6800  181.6280 C.3   403  BGC403      0.2404
     24  C3       -34.4130 -126.6260  180.9570 C.3   403  BGC403      0.2167
     25  C4       -34.3310 -127.4560  179.6750 C.3   403  BGC403      0.1815
     26  C5       -34.1120 -128.8860  180.1430 C.3   403  BGC403      0.1804
     27  C6       -34.1780 -129.8350  178.9450 C.3   403  BGC403      0.2141
     28  C1       -32.5890 -128.1240  181.8730 C.3   403  BGC403      0.2695
     29  O2       -33.0960 -125.9820  182.8750 O.3   403  BGC403     -0.2149
     30  O3       -34.7340 -125.2720  180.6270 O.3   403  BGC403     -0.2175
     31  O4       -35.4450 -127.2460  178.7910 O.3   403  BGC403     -0.3158
     32  O5       -32.8060 -128.9820  180.7390 O.3   403  BGC403     -0.3257
     33  O6       -33.1790 -129.4610  177.9930 O.3   403  BGC403     -0.2176
     34  C1       -36.7100 -127.8480  179.1100 C.3   404  GAD404      0.3223
     35  C2       -37.7470 -126.9440  178.4410 C.3   404  GAD404      0.2558
     36  O2       -37.6790 -125.6160  178.9650 O.3   404  GAD404     -0.2132
     37  C3       -39.1670 -127.4910  178.5920 C.3   404  GAD404      0.2138
     38  O3       -40.0080 -126.8930  177.6020 O.3   404  GAD404     -0.2152
     39  C4       -39.1460 -129.0030  178.3730 C.2   404  GAD404      0.0528
     40  C5       -37.9510 -129.7190  178.3210 C.2   404  GAD404      0.2189
     41  C6       -38.0280 -131.2220  178.0840 C.2   404  GAD404      0.4209
     42  O6A      -37.0750 -131.9280  178.4950 O.co2 404  GAD404     -0.2371
     43  O6B      -39.0450 -131.6720  177.5130 O.co2 404  GAD404     -0.2371
     44  O5       -36.7300 -129.1250  178.4520 O.2   404  GAD404     -0.4439
@<TRIPOS>BOND
     1     1     2    1
     2     1     8    1
     3     1     6    1
     4     2     9    1
     5     2     3    1
     6     3    10    1
     7     3     4    1
     8     4     5    1
     9     4    11    1
    10     5    12    1
    11     6    11    1
    12     6     7    1
    13     9    13    1
    14    13    14    1
    15    13    22    1
    16    14    15    1
    17    14    19    1
    18    15    20    1
    19    15    16    1
    20    16    21    1
    21    16    17    1
    22    17    18    1
    23    17    22    1
    24    21    28    1
    25    23    24    1
    26    23    28    1
    27    23    29    1
    28    24    25    1
    29    24    30    1
    30    25    31    1
    31    25    26    1
    32    26    27    1
    33    26    32    1
    34    27    33    1
    35    28    32    1
    36    31    34    1
    37    34    35    1
    38    34    44    1
    39    35    37    1
    40    35    36    1
    41    37    38    1
    42    37    39    1
    43    39    40    2
    44    40    41    1
    45    40    44    1
    46    41    43   ar
    47    41    42   ar
