@<TRIPOS>MOLECULE
1orr_CDP_6_ligand
   37    38     1     0     0
SMALL
NO_CHARGES


@<TRIPOS>ATOM
     1 O3B         16.5240   -28.4850    18.6050 O.co2        1 CDP1401   0.0000
     2 PB          16.9270   -29.7810    18.0120 P.3          1 CDP1401   0.0000
     3 O1B         15.8650   -30.1590    16.8770 O.co2        1 CDP1401  -1.0000
     4 O2B         16.8970   -30.8110    19.0690 O.co2        1 CDP1401  -1.0000
     5 O3A         18.3130   -29.7310    17.2510 O.3          1 CDP1401   0.0000
     6 PA          19.8720   -29.4780    17.7570 P.3          1 CDP1401   0.0000
     7 O1A         20.0620   -30.0480    19.1180 O.co2        1 CDP1401   0.0000
     8 O2A         20.1880   -28.0360    17.7590 O.co2        1 CDP1401  -1.0000
     9 O5'         20.6030   -30.2780    16.5720 O.3          1 CDP1401   0.0000
    10 C5'         20.7110   -31.6960    16.7010 C.3          1 CDP1401   0.0000
    11 C4'         22.1810   -32.0600    16.8030 C.3          1 CDP1401   0.0000
    12 O4'         22.8350   -31.6340    15.5880 O.3          1 CDP1401   0.0000
    13 C3'         22.9850   -31.4560    17.9600 C.3          1 CDP1401   0.0000
    14 O3'         23.8500   -32.3840    18.6610 O.3          1 CDP1401   0.0000
    15 C2'         23.8520   -30.4400    17.2090 C.3          1 CDP1401   0.0000
    16 O2'         25.0480   -30.2220    17.9830 O.3          1 CDP1401   0.0000
    17 C1'         24.1090   -31.2230    15.9540 C.3          1 CDP1401   0.0000
    18 N1          24.6500   -30.4010    14.8890 N.pl3        1 CDP1401   0.0000
    19 C2          25.9610   -30.6040    14.5330 C.2          1 CDP1401   0.0000
    20 O2          26.6570   -31.4500    15.0730 O.2          1 CDP1401   0.0000
    21 N3          26.4300   -29.8020    13.5270 N.2          1 CDP1401   0.0000
    22 C4          25.6730   -28.8370    12.8730 C.2          1 CDP1401   0.0000
    23 N4          26.2210   -28.0380    11.8330 N.pl3        1 CDP1401   0.0000
    24 C5          24.3220   -28.6770    13.2950 C.2          1 CDP1401   0.0000
    25 C6          23.8720   -29.4430    14.2620 C.2          1 CDP1401   0.0000
    26 H5'1        20.3086   -32.1392    15.9000 H            1 CDP1401   0.0000
    27 H5'2        20.2310   -31.9972    17.5249 H            1 CDP1401   0.0000
    28 H4'         22.2516   -33.0558    16.8616 H            1 CDP1401   0.0000
    29 H3'         22.3772   -30.9900    18.6030 H            1 CDP1401   0.0000
    30 H5          23.5818   -32.4277    19.6234 H            1 CDP1401   0.0000
    31 H2'         23.3610   -29.5880    17.0271 H            1 CDP1401   0.0000
    32 H7          25.3786   -29.2906    17.8305 H            1 CDP1401   0.0000
    33 H1'         24.7005   -32.0084    16.1363 H            1 CDP1401   0.0000
    34 H9          25.6541   -27.3507    11.3790 H            1 CDP1401   0.0000
    35 H10         27.1735   -28.1632    11.5553 H            1 CDP1401   0.0000
    36 H11         23.7293   -27.9964    12.8644 H            1 CDP1401   0.0000
    37 H12         22.9240   -29.3291    14.5590 H            1 CDP1401   0.0000
@<TRIPOS>BOND
     1    1    2      ar
     2    2    3      ar
     3    2    4      ar
     4    2    5       1
     5    5    6       1
     6    6    7      ar
     7    6    8      ar
     8    6    9       1
     9    9   10       1
    10   10   11       1
    11   11   12       1
    12   11   13       1
    13   12   17       1
    14   13   14       1
    15   13   15       1
    16   15   16       1
    17   15   17       1
    18   17   18       1
    19   18   19       1
    20   18   25       1
    21   19   20       2
    22   19   21       1
    23   21   22       2
    24   22   23       1
    25   22   24       1
    26   24   25       2
    27   25   37       1
    28   24   36       1
    29   23   35       1
    30   10   26       1
    31   10   27       1
    32   11   28       1
    33   13   29       1
    34   14   30       1
    35   15   31       1
    36   16   32       1
    37   17   33       1
    38   23   34       1
@<TRIPOS>SUBSTRUCTURE
     1 CDP1401     1 GROUP             4 C     CDP     0 **** CDP C1401
