@<TRIPOS>MOLECULE
4a0z_MLC_1_ligand
   87    89     1     0     0
SMALL
NO_CHARGES


@<TRIPOS>ATOM
     1 C8           4.0150    13.1100    -4.0570 C.2          1 MLC201   0.0000
     2 N9           4.3720    12.3570    -2.9930 N.pl3        1 MLC201   0.0000
     3 C4           5.7060    12.2300    -2.9920 C.ar         1 MLC201   0.0000
     4 C5           6.1850    12.9780    -4.1720 C.ar         1 MLC201   0.0000
     5 N7           5.0960    13.4910    -4.7800 N.2          1 MLC201   0.0000
     6 N3           6.6200    11.6110    -2.1850 N.ar         1 MLC201   0.0000
     7 C2           7.9450    11.6750    -2.4580 C.ar         1 MLC201   0.0000
     8 N1           8.4520    12.3400    -3.5260 N.ar         1 MLC201   0.0000
     9 C6           7.6520    13.0020    -4.4110 C.ar         1 MLC201   0.0000
    10 N6           8.1660    13.6640    -5.4850 N.pl3        1 MLC201   0.0000
    11 C1'          3.4480    11.7870    -1.9800 C.3          1 MLC201   0.0000
    12 C2'          3.5290    12.6680    -0.7430 C.3          1 MLC201   0.0000
    13 O2'          3.2660    11.8780     0.4290 O.3          1 MLC201   0.0000
    14 C3'          2.3970    13.6440    -0.9740 C.3          1 MLC201   0.0000
    15 O3'          1.9340    14.2830     0.2070 O.3          1 MLC201   0.0000
    16 C4'          1.3380    12.7470    -1.5890 C.3          1 MLC201   0.0000
    17 O4'          2.0840    11.8590    -2.4360 O.3          1 MLC201   0.0000
    18 C5'          0.3020    13.5480    -2.3570 C.3          1 MLC201   0.0000
    19 O5'         -0.6830    12.6590    -2.8670 O.3          1 MLC201   0.0000
    20 P1          -2.2520    12.8840    -2.6650 P.3          1 MLC201   0.0000
    21 O11         -2.9450    11.6780    -3.2270 O.co2        1 MLC201   0.0000
    22 O12         -2.6040    14.3020    -3.0970 O.co2        1 MLC201  -1.0000
    23 O6          -2.3420    12.8260    -1.0470 O.3          1 MLC201   0.0000
    24 P2          -3.2900    13.5930     0.0060 P.3          1 MLC201   0.0000
    25 O21         -4.7250    13.1370    -0.1480 O.co2        1 MLC201   0.0000
    26 O22         -2.9140    15.0650     0.1070 O.co2        1 MLC201  -1.0000
    27 O7          -2.7640    12.9110     1.3660 O.3          1 MLC201   0.0000
    28 CPB         -2.8230    11.4830     1.4870 C.3          1 MLC201   0.0000
    29 CPA         -1.6600    11.0140     2.3520 C.3          1 MLC201   0.0000
    30 CP7         -1.5950    11.8870     3.6240 C.3          1 MLC201   0.0000
    31 CP9         -1.8760     9.5260     2.6680 C.3          1 MLC201   0.0000
    32 CP8         -0.4070    11.2300     1.5050 C.3          1 MLC201   0.0000
    33 OP3         -2.8870    11.9180     4.2290 O.3          1 MLC201   0.0000
    34 CP6         -0.6040    11.4740     4.6710 C.2          1 MLC201   0.0000
    35 OP2          0.5920    11.6350     4.4900 O.2          1 MLC201   0.0000
    36 NP2         -1.0950    10.9510     5.8050 N.am         1 MLC201   0.0000
    37 CP5         -0.1630    10.4720     6.8070 C.3          1 MLC201   0.0000
    38 CP4          0.4430     9.1350     6.3950 C.3          1 MLC201   0.0000
    39 CP3          1.4820     8.6300     7.3740 C.2          1 MLC201   0.0000
    40 OP1          2.2980     9.3870     7.8840 O.2          1 MLC201   0.0000
    41 NP1          1.4620     7.3060     7.6010 N.am         1 MLC201   0.0000
    42 CP2          2.2290     6.6750     8.6650 C.3          1 MLC201   0.0000
    43 CP1          3.7340     6.6040     8.4140 C.3          1 MLC201   0.0000
    44 S            4.1030     5.3770     7.1990 S.3          1 MLC201   0.0000
    45 P3           1.9640    15.8970     0.3570 P.3          1 MLC201   0.0000
    46 O31          3.4450    16.1580     0.3530 O.co2        1 MLC201   0.0000
    47 O32          1.2510    16.4210    -0.8610 O.co2        1 MLC201  -1.0000
    48 O33          1.1800    16.0530     1.6460 O.co2        1 MLC201  -1.0000
    49 CM1          3.8910     3.8990     7.9850 C.2          1 MLC201   0.0000
    50 CM2          4.6060     2.6570     7.4930 C.3          1 MLC201   0.0000
    51 CM3          5.7500     2.2270     8.3860 C.2          1 MLC201   0.0000
    52 OM2          3.1450     3.8300     8.9510 O.2          1 MLC201   0.0000
    53 OM3          6.0480     2.8890     9.4000 O.co2        1 MLC201   0.0000
    54 OM4          6.3870     1.1940     8.0910 O.co2        1 MLC201  -1.0000
    55 H1           3.0721    13.3551    -4.2823 H            1 MLC201   0.0000
    56 H2           8.5805    11.2093    -1.8422 H            1 MLC201   0.0000
    57 H3           9.1540    13.6757    -5.6392 H            1 MLC201   0.0000
    58 H4           7.5553    14.1382    -6.1192 H            1 MLC201   0.0000
    59 H1'          3.6995    10.8442    -1.7611 H            1 MLC201   0.0000
    60 H2'          4.4109    13.1354    -0.6813 H            1 MLC201   0.0000
    61 H7           2.6459    11.1295     0.1942 H            1 MLC201   0.0000
    62 H3'          2.6799    14.3343    -1.6400 H            1 MLC201   0.0000
    63 H4'          0.8865    12.2207    -0.8685 H            1 MLC201   0.0000
    64 H5'1         0.7437    14.0294    -3.1140 H            1 MLC201   0.0000
    65 H5'2        -0.1293    14.2119    -1.7461 H            1 MLC201   0.0000
    66 HPB1        -2.7569    11.0661     0.5805 H            1 MLC201   0.0000
    67 HPB2        -3.6875    11.2175     1.9138 H            1 MLC201   0.0000
    68 HP7         -1.3687    12.8193     3.3419 H            1 MLC201   0.0000
    69 HP91        -1.1236     9.1933     3.2365 H            1 MLC201   0.0000
    70 HP92        -2.7400     9.4113     3.1582 H            1 MLC201   0.0000
    71 HP93        -1.9050     9.0049     1.8150 H            1 MLC201   0.0000
    72 HP81         0.3985    10.9388     2.0211 H            1 MLC201   0.0000
    73 HP82        -0.4763    10.6930     0.6643 H            1 MLC201   0.0000
    74 HP83        -0.3231    12.1996     1.2752 H            1 MLC201   0.0000
    75 HP3         -2.8551    12.4815     5.0545 H            1 MLC201   0.0000
    76 HP2         -2.0819    10.8929     5.9557 H            1 MLC201   0.0000
    77 HP51        -0.6461    10.3584     7.6752 H            1 MLC201   0.0000
    78 HP52         0.5702    11.1428     6.9188 H            1 MLC201   0.0000
    79 HP41         0.8748     9.2432     5.4995 H            1 MLC201   0.0000
    80 HP42        -0.2907     8.4585     6.3317 H            1 MLC201   0.0000
    81 HP1          0.8953     6.7287     7.0132 H            1 MLC201   0.0000
    82 HP21         1.8888     5.7420     8.7825 H            1 MLC201   0.0000
    83 HP22         2.0781     7.1933     9.5068 H            1 MLC201   0.0000
    84 HP11         4.1992     6.3714     9.2681 H            1 MLC201   0.0000
    85 HP12         4.0558     7.4940     8.0909 H            1 MLC201   0.0000
    86 HM21         4.9691     2.8414     6.5797 H            1 MLC201   0.0000
    87 HM22         3.9441     1.9090     7.4438 H            1 MLC201   0.0000
@<TRIPOS>BOND
     1    1    2       1
     2    1    5       2
     3    2    3       1
     4    2   11       1
     5    3    4      ar
     6    3    6      ar
     7    4    5       1
     8    4    9      ar
     9    6    7      ar
    10    7    8      ar
    11    8    9      ar
    12    9   10       1
    13   11   12       1
    14   11   17       1
    15   12   13       1
    16   12   14       1
    17   14   15       1
    18   14   16       1
    19   15   45       1
    20   16   17       1
    21   16   18       1
    22   18   19       1
    23   19   20       1
    24   20   21      ar
    25   20   22      ar
    26   20   23       1
    27   23   24       1
    28   24   25      ar
    29   24   26      ar
    30   24   27       1
    31   27   28       1
    32   28   29       1
    33   29   30       1
    34   29   31       1
    35   29   32       1
    36   30   33       1
    37   30   34       1
    38   34   35       2
    39   34   36      am
    40   36   37       1
    41   37   38       1
    42   38   39       1
    43   39   40       2
    44   39   41      am
    45   41   42       1
    46   42   43       1
    47   43   44       1
    48   44   49       1
    49   45   46      ar
    50   45   47      ar
    51   45   48      ar
    52   49   50       1
    53   49   52       2
    54   50   51       1
    55   51   53      ar
    56   51   54      ar
    57    1   55       1
    58    7   56       1
    59   10   57       1
    60   10   58       1
    61   11   59       1
    62   12   60       1
    63   13   61       1
    64   14   62       1
    65   16   63       1
    66   18   64       1
    67   18   65       1
    68   50   86       1
    69   50   87       1
    70   28   66       1
    71   28   67       1
    72   30   68       1
    73   31   69       1
    74   31   70       1
    75   31   71       1
    76   32   72       1
    77   32   73       1
    78   32   74       1
    79   33   75       1
    80   36   76       1
    81   37   77       1
    82   37   78       1
    83   38   79       1
    84   38   80       1
    85   41   81       1
    86   42   82       1
    87   42   83       1
    88   43   84       1
    89   43   85       1
@<TRIPOS>SUBSTRUCTURE
     1 MLC201      1 GROUP             4 A     MLC     0 **** MLC A 201
