@<TRIPOS>MOLECULE
4ei7_GDP_1_ligand
   40    42     1     0     0
SMALL
NO_CHARGES


@<TRIPOS>ATOM
     1 PB          14.4320    32.7390    53.9690 P.3          1 GDP500   0.0000
     2 O1B         13.6240    33.9970    54.2330 O.co2        1 GDP500   0.0000
     3 O2B         13.8800    31.9880    52.8010 O.co2        1 GDP500  -1.0000
     4 O3B         14.4020    31.8680    55.1990 O.co2        1 GDP500  -1.0000
     5 O3A         15.9670    33.1810    53.6590 O.3          1 GDP500   0.0000
     6 PA          16.4300    34.3830    52.6680 P.3          1 GDP500   0.0000
     7 O1A         15.5350    34.5480    51.4630 O.co2        1 GDP500   0.0000
     8 O2A         16.5310    35.6740    53.4490 O.co2        1 GDP500  -1.0000
     9 O5'         17.9160    33.9180    52.2340 O.3          1 GDP500   0.0000
    10 C5'         18.1090    32.7470    51.4790 C.3          1 GDP500   0.0000
    11 C4'         19.2010    32.9940    50.4510 C.3          1 GDP500   0.0000
    12 O4'         18.7750    33.9200    49.4490 O.3          1 GDP500   0.0000
    13 C3'         20.4610    33.5750    51.0660 C.3          1 GDP500   0.0000
    14 O3'         21.3770    32.5300    51.3840 O.3          1 GDP500   0.0000
    15 C2'         20.9690    34.5500    50.0220 C.3          1 GDP500   0.0000
    16 O2'         21.9760    33.9290    49.2270 O.3          1 GDP500   0.0000
    17 C1'         19.7940    34.8710    49.1460 C.3          1 GDP500   0.0000
    18 N9          19.2130    36.2290    49.3250 N.pl3        1 GDP500   0.0000
    19 C8          18.6070    36.7560    50.4180 C.2          1 GDP500   0.0000
    20 N7          18.1790    38.0270    50.1850 N.2          1 GDP500   0.0000
    21 C5          18.5100    38.3440    48.9120 C.2          1 GDP500   0.0000
    22 C6          18.3490    39.5260    48.0000 C.2          1 GDP500   0.0000
    23 O6          17.7680    40.5690    48.3910 O.2          1 GDP500   0.0000
    24 N1          18.8490    39.4400    46.7350 N.pl3        1 GDP500   0.0000
    25 C2          19.4890    38.3230    46.2590 C.2          1 GDP500   0.0000
    26 N2          19.9700    38.3170    44.9820 N.pl3        1 GDP500   0.0000
    27 N3          19.6600    37.2030    47.0410 N.2          1 GDP500   0.0000
    28 C4          19.2000    37.1590    48.3480 C.2          1 GDP500   0.0000
    29 H5'1        17.2582    32.5050    51.0125 H            1 GDP500   0.0000
    30 H5'2        18.3816    31.9992    52.0843 H            1 GDP500   0.0000
    31 H4'         19.4294    32.1260    50.0101 H            1 GDP500   0.0000
    32 H3'         20.2242    34.0742    51.8995 H            1 GDP500   0.0000
    33 H5          22.3131    32.8749    51.3152 H            1 GDP500   0.0000
    34 H2'         21.3228    35.3787    50.4556 H            1 GDP500   0.0000
    35 H7          22.8720    34.0842    49.6431 H            1 GDP500   0.0000
    36 H1'         20.0648    34.7597    48.1898 H            1 GDP500   0.0000
    37 H9          18.4895    36.2721    51.2852 H            1 GDP500   0.0000
    38 H10         18.7448    40.2264    46.1261 H            1 GDP500   0.0000
    39 H11         20.4375    37.5072    44.6276 H            1 GDP500   0.0000
    40 H12         19.8550    39.1224    44.4006 H            1 GDP500   0.0000
@<TRIPOS>BOND
     1    1    2      ar
     2    1    3      ar
     3    1    4      ar
     4    1    5       1
     5    5    6       1
     6    6    7      ar
     7    6    8      ar
     8    6    9       1
     9    9   10       1
    10   10   11       1
    11   11   12       1
    12   11   13       1
    13   12   17       1
    14   13   14       1
    15   13   15       1
    16   15   16       1
    17   15   17       1
    18   17   18       1
    19   18   19       1
    20   18   28       1
    21   19   20       2
    22   20   21       1
    23   21   22       1
    24   21   28       2
    25   22   23       2
    26   22   24       1
    27   24   25       1
    28   25   26       1
    29   25   27       2
    30   27   28       1
    31   26   40       1
    32   26   39       1
    33   24   38       1
    34   10   29       1
    35   10   30       1
    36   11   31       1
    37   13   32       1
    38   14   33       1
    39   15   34       1
    40   16   35       1
    41   17   36       1
    42   19   37       1
@<TRIPOS>SUBSTRUCTURE
     1 GDP500      1 GROUP             4 A     GDP     0 **** GDP A 500
