@<TRIPOS>MOLECULE
2ch2_KY1_4_ligand
   24    24     1     0     0
SMALL
NO_CHARGES


@<TRIPOS>ATOM
     1 CA          -3.6530    25.4290   -15.2150 C.3          1 KY11392   0.0000
     2 CB          -3.7250    26.7500   -15.9290 C.3          1 KY11392   0.0000
     3 CG          -3.6920    29.2640   -12.8630 C.ar         1 KY11392   0.0000
     4 CD1         -4.2430    29.4210   -11.5780 C.ar         1 KY11392   0.0000
     5 CE1         -5.1000    28.4540   -11.0380 C.ar         1 KY11392   0.0000
     6 CZ          -5.4020    27.3290   -11.8050 C.ar         1 KY11392   0.0000
     7 CE2         -4.8640    27.1750   -13.0870 C.ar         1 KY11392   0.0000
     8 CD2         -4.0020    28.1250   -13.6360 C.ar         1 KY11392   0.0000
     9 C           -2.4090    25.3700   -14.3810 C.2          1 KY11392   0.0000
    10 O           -2.4430    25.6360   -13.1570 O.co2        1 KY11392   0.0000
    11 OXT         -1.3680    25.0430   -14.9700 O.co2        1 KY11392  -1.0000
    12 C1          -3.4360    27.9300   -15.0330 C.2          1 KY11392   0.0000
    13 O2          -2.7080    28.7760   -15.5110 O.2          1 KY11392   0.0000
    14 N1          -2.8670    30.2400   -13.3220 N.pl3        1 KY11392   0.0000
    15 HA1         -3.6375    24.6887   -15.8871 H            1 KY11392   0.0000
    16 HA2         -4.4536    25.3266   -14.6247 H            1 KY11392   0.0000
    17 HB1         -4.6445    26.8565   -16.3073 H            1 KY11392   0.0000
    18 HB2         -3.0569    26.7454   -16.6730 H            1 KY11392   0.0000
    19 HD1         -4.0193    30.2352   -11.0423 H            1 KY11392   0.0000
    20 HE1         -5.4868    28.5676   -10.1229 H            1 KY11392   0.0000
    21 HZ          -6.0090    26.6257   -11.4349 H            1 KY11392   0.0000
    22 HE2         -5.1028    26.3650   -13.6226 H            1 KY11392   0.0000
    23 H9          -2.4573    30.1619   -14.2308 H            1 KY11392   0.0000
    24 H10         -2.6692    31.0369   -12.7512 H            1 KY11392   0.0000
@<TRIPOS>BOND
     1    1    2       1
     2    1    9       1
     3    2   12       1
     4    3    4      ar
     5    3    8      ar
     6    3   14       1
     7    4    5      ar
     8    5    6      ar
     9    6    7      ar
    10    7    8      ar
    11    8   12       1
    12    9   10      ar
    13    9   11      ar
    14   12   13       2
    15    1   15       1
    16    1   16       1
    17    2   17       1
    18    2   18       1
    19    4   19       1
    20    5   20       1
    21    6   21       1
    22    7   22       1
    23   14   24       1
    24   14   23       1
@<TRIPOS>SUBSTRUCTURE
     1 KY11392     1 GROUP             4 D     KY1     0 **** KY1 D1392
