@<TRIPOS>MOLECULE
2v7u_SAM_1_ligand
   50    52     1     0     0
SMALL
NO_CHARGES


@<TRIPOS>ATOM
     1 N           34.1080    13.1400    66.6420 N.4          1 SAM1299   1.0000
     2 CA          34.8100    12.0190    67.2910 C.3          1 SAM1299   0.0000
     3 C           33.7810    11.0170    67.8340 C.2          1 SAM1299   0.0000
     4 O           34.0690     9.8190    67.8910 O.co2        1 SAM1299   0.0000
     5 OXT         32.6520    11.3760    68.2100 O.co2        1 SAM1299  -1.0000
     6 CB          35.6640    12.5490    68.4470 C.3          1 SAM1299   0.0000
     7 CG          36.7570    11.5510    68.8480 C.3          1 SAM1299   0.0000
     8 SD          38.1990    11.4860    67.7330 S.3          1 SAM1299   1.0000
     9 CE          37.7550    10.0600    66.7760 C.3          1 SAM1299   0.0000
    10 C5'         39.2480    10.8280    69.0530 C.3          1 SAM1299   0.0000
    11 C4'         40.7880    10.7860    68.8880 C.3          1 SAM1299   0.0000
    12 O4'         41.0940     9.9750    67.7430 O.3          1 SAM1299   0.0000
    13 C3'         41.3750    12.1840    68.6840 C.3          1 SAM1299   0.0000
    14 O3'         42.4140    12.3720    69.6410 O.3          1 SAM1299   0.0000
    15 C2'         41.9440    12.1660    67.2790 C.3          1 SAM1299   0.0000
    16 O2'         43.2580    12.7420    67.2450 O.3          1 SAM1299   0.0000
    17 C1'         42.0560    10.6820    66.9510 C.3          1 SAM1299   0.0000
    18 N9          41.7160    10.4330    65.5370 N.pl3        1 SAM1299   0.0000
    19 C8          40.6590    10.8760    64.8410 C.2          1 SAM1299   0.0000
    20 N7          40.7440    10.4300    63.5930 N.2          1 SAM1299   0.0000
    21 C5          41.8530     9.6950    63.5050 C.ar         1 SAM1299   0.0000
    22 C6          42.4380     8.9880    62.4700 C.ar         1 SAM1299   0.0000
    23 N6          41.8760     8.9430    61.2340 N.pl3        1 SAM1299   0.0000
    24 N1          43.6370     8.3300    62.7630 N.ar         1 SAM1299   0.0000
    25 C2          44.2240     8.3640    64.0330 C.ar         1 SAM1299   0.0000
    26 N3          43.6380     9.0440    64.9960 N.ar         1 SAM1299   0.0000
    27 C4          42.4780     9.7040    64.7490 C.ar         1 SAM1299   0.0000
    28 H1          34.6577    13.9711    66.7263 H            1 SAM1299   0.0000
    29 H2          33.9676    12.9300    65.6744 H            1 SAM1299   0.0000
    30 HA          35.3988    11.5633    66.6234 H            1 SAM1299   0.0000
    31 HB1         35.0731    12.7170    69.2361 H            1 SAM1299   0.0000
    32 HB2         36.0952    13.4061    68.1650 H            1 SAM1299   0.0000
    33 HG1         36.3474    10.6392    68.8770 H            1 SAM1299   0.0000
    34 HG2         37.0827    11.7993    69.7603 H            1 SAM1299   0.0000
    35 HE1         38.4651     9.8813    66.0950 H            1 SAM1299   0.0000
    36 HE2         37.6654     9.2680    67.3799 H            1 SAM1299   0.0000
    37 HE3         36.8842    10.2268    66.3136 H            1 SAM1299   0.0000
    38 H5'1        38.9513     9.8863    69.2119 H            1 SAM1299   0.0000
    39 H5'2        39.0622    11.3779    69.8673 H            1 SAM1299   0.0000
    40 H4'         41.1955    10.3732    69.7026 H            1 SAM1299   0.0000
    41 H3'         40.6697    12.8868    68.7769 H            1 SAM1299   0.0000
    42 H15         42.8351    11.4902    69.8533 H            1 SAM1299   0.0000
    43 H2'         41.3323    12.6299    66.6382 H            1 SAM1299   0.0000
    44 H17         43.1869    13.7247    67.0738 H            1 SAM1299   0.0000
    45 H1'         42.9788    10.3516    67.1493 H            1 SAM1299   0.0000
    46 H19         39.9247    11.4500    65.2034 H            1 SAM1299   0.0000
    47 H20         42.3185     8.4248    60.5021 H            1 SAM1299   0.0000
    48 H21         41.0198     9.4281    61.0561 H            1 SAM1299   0.0000
    49 H22         45.0797     7.8768    64.2072 H            1 SAM1299   0.0000
    50 H23         33.2223    13.2798    67.0847 H            1 SAM1299   0.0000
@<TRIPOS>BOND
     1    1    2       1
     2    2    3       1
     3    2    6       1
     4    3    4      ar
     5    3    5      ar
     6    6    7       1
     7    7    8       1
     8    8    9       1
     9    8   10       1
    10   10   11       1
    11   11   12       1
    12   11   13       1
    13   12   17       1
    14   13   14       1
    15   13   15       1
    16   15   16       1
    17   15   17       1
    18   17   18       1
    19   18   19       1
    20   18   27       1
    21   19   20       2
    22   20   21       1
    23   21   22      ar
    24   21   27      ar
    25   22   23       1
    26   22   24      ar
    27   24   25      ar
    28   25   26      ar
    29   26   27      ar
    30    1   28       1
    31    1   29       1
    32    2   30       1
    33    1   50       1
    34    6   31       1
    35    6   32       1
    36    7   33       1
    37    7   34       1
    38    9   35       1
    39    9   36       1
    40    9   37       1
    41   10   38       1
    42   10   39       1
    43   11   40       1
    44   13   41       1
    45   14   42       1
    46   15   43       1
    47   16   44       1
    48   17   45       1
    49   19   46       1
    50   23   47       1
    51   23   48       1
    52   25   49       1
@<TRIPOS>SUBSTRUCTURE
     1 SAM1299     1 GROUP             4 A     SAM     0 **** SAM A1299
