@<TRIPOS>MOLECULE
3rhh_NAP_1_ligand
   42    44     1     0     0
SMALL
NO_CHARGES


@<TRIPOS>ATOM
     1 PA          37.4790   -14.4270    -4.9190 P.3          1 NAP506   0.0000
     2 O1A         37.8320   -14.1660    -6.3330 O.co2        1 NAP506   0.0000
     3 O2A         36.1010   -14.9410    -4.7880 O.co2        1 NAP506  -1.0000
     4 O5B         38.5320   -15.4540    -4.2720 O.3          1 NAP506   0.0000
     5 C5B         38.0950   -16.3660    -3.2850 C.3          1 NAP506   0.0000
     6 C4B         38.5660   -17.8090    -3.5170 C.3          1 NAP506   0.0000
     7 O4B         38.0180   -18.3910    -4.6910 O.3          1 NAP506   0.0000
     8 C3B         40.0670   -17.9320    -3.6500 C.3          1 NAP506   0.0000
     9 O3B         40.4070   -19.1440    -3.0140 O.3          1 NAP506   0.0000
    10 C2B         40.2380   -18.0130    -5.1560 C.3          1 NAP506   0.0000
    11 O2B         41.4860   -18.5020    -5.5790 O.3          1 NAP506   0.0000
    12 C1B         39.0460   -18.8680    -5.5390 C.3          1 NAP506   0.0000
    13 N9A         38.5780   -18.6920    -6.9160 N.pl3        1 NAP506   0.0000
    14 C8A         38.8230   -17.6410    -7.7600 C.2          1 NAP506   0.0000
    15 N7A         38.1820   -17.8690    -8.9250 N.2          1 NAP506   0.0000
    16 C5A         37.5320   -19.0490    -8.8310 C.ar         1 NAP506   0.0000
    17 C6A         36.7370   -19.7470    -9.7260 C.ar         1 NAP506   0.0000
    18 N6A         36.5120   -19.2550   -10.9390 N.pl3        1 NAP506   0.0000
    19 N1A         36.1890   -20.9550    -9.3410 N.ar         1 NAP506   0.0000
    20 C2A         36.4380   -21.4610    -8.0790 C.ar         1 NAP506   0.0000
    21 N3A         37.2370   -20.7640    -7.1920 N.ar         1 NAP506   0.0000
    22 C4A         37.7710   -19.5770    -7.5670 C.ar         1 NAP506   0.0000
    23 O3          37.6060   -13.0910    -4.0450 O.3          1 NAP506   0.0000
    24 PN          38.6560   -12.7140    -2.9000 P.3          1 NAP506   0.0000
    25 O1N         38.6360   -11.0970    -2.8620 O.co2        1 NAP506   0.0000
    26 O2N         38.1390   -13.2300    -1.6050 O.co2        1 NAP506  -1.0000
    27 O5D         39.9700   -13.1350    -3.4380 O.co2        1 NAP506  -1.0000
    28 P2B         42.6690   -17.4400    -5.8580 P.3          1 NAP506   0.0000
    29 O1X         43.8390   -18.1890    -6.4430 O.co2        1 NAP506   0.0000
    30 O2X         43.1090   -16.7880    -4.5770 O.co2        1 NAP506  -1.0000
    31 O3X         42.1830   -16.3740    -6.7990 O.co2        1 NAP506  -1.0000
    32 H5B1        37.0951   -16.3597    -3.2715 H            1 NAP506   0.0000
    33 H5B2        38.4423   -16.0604    -2.3984 H            1 NAP506   0.0000
    34 H4B         38.2775   -18.3596    -2.7337 H            1 NAP506   0.0000
    35 H3B         40.5479   -17.1490    -3.2555 H            1 NAP506   0.0000
    36 H5          40.1284   -19.1065    -2.0543 H            1 NAP506   0.0000
    37 H2B         40.1089   -17.0986    -5.5396 H            1 NAP506   0.0000
    38 H1B         39.2332   -19.8327    -5.3536 H            1 NAP506   0.0000
    39 H8A         39.3827   -16.8398    -7.5482 H            1 NAP506   0.0000
    40 H6A1        35.9382   -19.7591   -11.5845 H            1 NAP506   0.0000
    41 H6A2        36.9164   -18.3805   -11.2068 H            1 NAP506   0.0000
    42 H2A         36.0380   -22.3360    -7.8062 H            1 NAP506   0.0000
@<TRIPOS>BOND
     1    1    2      ar
     2    1    3      ar
     3    1    4       1
     4    1   23       1
     5    4    5       1
     6    5    6       1
     7    6    7       1
     8    6    8       1
     9    7   12       1
    10    8    9       1
    11    8   10       1
    12   10   11       1
    13   10   12       1
    14   11   28       1
    15   12   13       1
    16   13   14       1
    17   13   22       1
    18   14   15       2
    19   15   16       1
    20   16   17      ar
    21   16   22      ar
    22   17   18       1
    23   17   19      ar
    24   19   20      ar
    25   20   21      ar
    26   21   22      ar
    27   23   24       1
    28   24   25      ar
    29   24   26      ar
    30   24   27      ar
    31   28   29      ar
    32   28   30      ar
    33   28   31      ar
    34   20   42       1
    35    5   32       1
    36    5   33       1
    37    6   34       1
    38    8   35       1
    39    9   36       1
    40   10   37       1
    41   12   38       1
    42   14   39       1
    43   18   40       1
    44   18   41       1
@<TRIPOS>SUBSTRUCTURE
     1 NAP506      1 GROUP             4 A     NAP     0 **** NAP A 506
