@<TRIPOS>MOLECULE
4hej_14D_1_ligand
   58    61     1     0     0
SMALL
NO_CHARGES


@<TRIPOS>ATOM
     1 C1          12.0210    -3.6210     1.0730 C.3          1 14D301   0.0000
     2 C2          11.4890    -2.2390     0.9260 C.2          1 14D301   0.0000
     3 C3          11.0490    -1.5350     1.9670 C.2          1 14D301   0.0000
     4 N1          10.5530    -0.2600     1.8270 N.pl3        1 14D301   0.0000
     5 C4          10.5260     0.3780     0.5950 C.2          1 14D301   0.0000
     6 O1          10.1830     1.5530     0.4900 O.2          1 14D301   0.0000
     7 N2          10.9020    -0.3320    -0.4830 N.pl3        1 14D301   0.0000
     8 C5          11.4090    -1.5830    -0.4140 C.2          1 14D301   0.0000
     9 O2          11.8020    -2.1860    -1.4120 O.2          1 14D301   0.0000
    10 C6          10.0680     0.4530     3.0050 C.3          1 14D301   0.0000
    11 C7           9.1670    -0.3900     3.9170 C.3          1 14D301   0.0000
    12 C8           8.6640     0.4130     5.1000 C.3          1 14D301   0.0000
    13 C9           9.8360     0.9590     5.8930 C.3          1 14D301   0.0000
    14 N3          10.6450     1.8310     4.9800 N.4          1 14D301   1.0000
    15 C10         11.1830     1.1650     3.7490 C.3          1 14D301   0.0000
    16 C11         11.6260     2.7310     5.6730 C.3          1 14D301   0.0000
    17 C12         12.8470     2.0370     6.1960 C.ar         1 14D301   0.0000
    18 C13         12.8810     1.5860     7.5050 C.ar         1 14D301   0.0000
    19 C14         13.9880     0.9260     7.9930 C.ar         1 14D301   0.0000
    20 C15         15.0850     0.7290     7.1740 C.ar         1 14D301   0.0000
    21 C16         15.0440     1.1660     5.8640 C.ar         1 14D301   0.0000
    22 C17         13.9390     1.8300     5.3730 C.ar         1 14D301   0.0000
    23 O3          16.1520     0.9850     5.0490 O.3          1 14D301   0.0000
    24 C18         16.2060    -0.1230     4.2200 C.ar         1 14D301   0.0000
    25 C19         15.3830    -1.2350     4.3050 C.ar         1 14D301   0.0000
    26 C20         15.5570    -2.2880     3.4220 C.ar         1 14D301   0.0000
    27 C21         16.5470    -2.2310     2.4610 C.ar         1 14D301   0.0000
    28 C22         17.3530    -1.1050     2.3780 C.ar         1 14D301   0.0000
    29 C23         17.1860    -0.0580     3.2580 C.ar         1 14D301   0.0000
    30 C24         18.4270    -1.0130     1.3580 C.3          1 14D301   0.0000
    31 F1          17.9990    -1.3290     0.1160 F            1 14D301   0.0000
    32 F2          19.4430    -1.8510     1.6600 F            1 14D301   0.0000
    33 F3          18.9860     0.2180     1.2090 F            1 14D301   0.0000
    34 H1          12.2964    -3.9692     0.1770 H            1 14D301   0.0000
    35 H2          12.8125    -3.6102     1.6841 H            1 14D301   0.0000
    36 H3          11.3116    -4.2122     1.4568 H            1 14D301   0.0000
    37 H4          11.0802    -1.9458     2.8782 H            1 14D301   0.0000
    38 H5          10.8011     0.0883    -1.3848 H            1 14D301   0.0000
    39 H6           9.4799     1.1801     2.6508 H            1 14D301   0.0000
    40 H7           9.6889    -1.1733     4.2547 H            1 14D301   0.0000
    41 H8           8.3829    -0.7149     3.3882 H            1 14D301   0.0000
    42 H9           8.1114    -0.1764     5.6893 H            1 14D301   0.0000
    43 H10          8.1045     1.1734     4.7702 H            1 14D301   0.0000
    44 H11         10.3995     0.2044     6.2294 H            1 14D301   0.0000
    45 H12          9.5014     1.4961     6.6673 H            1 14D301   0.0000
    46 H13         11.5897     1.8558     3.1512 H            1 14D301   0.0000
    47 H14         11.8812     0.4994     4.0125 H            1 14D301   0.0000
    48 H15         11.1601     3.1658     6.4436 H            1 14D301   0.0000
    49 H16         11.9198     3.4317     5.0228 H            1 14D301   0.0000
    50 H17         12.0941     1.7409     8.1023 H            1 14D301   0.0000
    51 H18         13.9981     0.5910     8.9352 H            1 14D301   0.0000
    52 H19         15.9020     0.2735     7.5275 H            1 14D301   0.0000
    53 H20         13.9277     2.1593     4.4288 H            1 14D301   0.0000
    54 H21         14.6663    -1.2769     5.0011 H            1 14D301   0.0000
    55 H22         14.9643    -3.0913     3.4806 H            1 14D301   0.0000
    56 H23         16.6818    -2.9951     1.8301 H            1 14D301   0.0000
    57 H24         17.7761     0.7470     3.1971 H            1 14D301   0.0000
    58 H25          9.9675     2.4700     4.6157 H            1 14D301   0.0000
@<TRIPOS>BOND
     1    1    2       1
     2    2    3       2
     3    2    8       1
     4    3    4       1
     5    4    5       1
     6    4   10       1
     7    5    6       2
     8    5    7       1
     9    7    8       1
    10    8    9       2
    11   10   11       1
    12   10   15       1
    13   11   12       1
    14   12   13       1
    15   13   14       1
    16   14   15       1
    17   14   16       1
    18   16   17       1
    19   17   18      ar
    20   17   22      ar
    21   18   19      ar
    22   19   20      ar
    23   20   21      ar
    24   21   22      ar
    25   21   23       1
    26   23   24       1
    27   24   25      ar
    28   24   29      ar
    29   25   26      ar
    30   26   27      ar
    31   27   28      ar
    32   28   29      ar
    33   28   30       1
    34   30   31       1
    35   30   32       1
    36   30   33       1
    37    1   34       1
    38    1   35       1
    39    1   36       1
    40    3   37       1
    41    7   38       1
    42   10   39       1
    43   11   40       1
    44   11   41       1
    45   12   42       1
    46   12   43       1
    47   13   44       1
    48   13   45       1
    49   15   46       1
    50   15   47       1
    51   16   48       1
    52   16   49       1
    53   18   50       1
    54   19   51       1
    55   20   52       1
    56   22   53       1
    57   25   54       1
    58   26   55       1
    59   27   56       1
    60   29   57       1
    61   14   58       1
@<TRIPOS>SUBSTRUCTURE
     1 14D301      1 GROUP             4 A     14D     0 **** 14D A 301
