@<TRIPOS>MOLECULE
5ez7_FAD_1_ligand
   84    89     1     0     0
SMALL
NO_CHARGES


@<TRIPOS>ATOM
     1 PA          34.2120    -9.9160    11.9930 P.3          1 FAD401   0.0000
     2 O1A         35.1620    -9.0010    11.2920 O.co2        1 FAD401   0.0000
     3 O2A         33.7120   -11.1630    11.3190 O.co2        1 FAD401  -1.0000
     4 O5B         34.8870   -10.2890    13.3790 O.3          1 FAD401   0.0000
     5 C5B         34.3950   -11.3200    14.2120 C.3          1 FAD401   0.0000
     6 C4B         35.5890   -11.8250    14.9940 C.3          1 FAD401   0.0000
     7 O4B         35.1390   -12.7410    16.0060 O.3          1 FAD401   0.0000
     8 C3B         36.5880   -12.5520    14.0890 C.3          1 FAD401   0.0000
     9 O3B         37.8910   -11.9750    14.1980 O.3          1 FAD401   0.0000
    10 C2B         36.5420   -13.9810    14.5970 C.3          1 FAD401   0.0000
    11 O2B         37.7760   -14.6890    14.5070 O.3          1 FAD401   0.0000
    12 C1B         36.0640   -13.8080    16.0410 C.3          1 FAD401   0.0000
    13 N9A         35.3810   -14.9930    16.5740 N.pl3        1 FAD401   0.0000
    14 C8A         34.4660   -15.7440    15.9370 C.2          1 FAD401   0.0000
    15 N7A         34.0650   -16.7510    16.7320 N.2          1 FAD401   0.0000
    16 C5A         34.7180   -16.6440    17.8950 C.ar         1 FAD401   0.0000
    17 C6A         34.7480   -17.4060    19.1510 C.ar         1 FAD401   0.0000
    18 N6A         33.9530   -18.4790    19.2780 N.pl3        1 FAD401   0.0000
    19 N1A         35.5560   -16.9850    20.1380 N.ar         1 FAD401   0.0000
    20 C2A         36.3390   -15.9010    19.9870 C.ar         1 FAD401   0.0000
    21 N3A         36.3680   -15.1580    18.8610 N.ar         1 FAD401   0.0000
    22 C4A         35.5910   -15.4850    17.7990 C.ar         1 FAD401   0.0000
    23 N1          31.3340    -2.5680     5.3100 N.2          1 FAD401   0.0000
    24 C2          31.5720    -1.2730     5.0120 C.2          1 FAD401   0.0000
    25 O2          31.1660    -0.3850     5.7990 O.2          1 FAD401   0.0000
    26 N3          32.2310    -0.9010     3.9010 N.pl3        1 FAD401   0.0000
    27 C4          32.6890    -1.7820     3.0160 C.2          1 FAD401   0.0000
    28 O4          33.3080    -1.4140     1.9980 O.2          1 FAD401   0.0000
    29 C4X         32.4700    -3.2100     3.2710 C.2          1 FAD401   0.0000
    30 N5          32.9080    -4.1480     2.4100 N.2          1 FAD401   0.0000
    31 C5X         32.7120    -5.4550     2.6610 C.ar         1 FAD401   0.0000
    32 C6          33.1950    -6.3910     1.7550 C.ar         1 FAD401   0.0000
    33 C7          33.0190    -7.7420     1.9760 C.ar         1 FAD401   0.0000
    34 C7M         33.5650    -8.7330     0.9930 C.3          1 FAD401   0.0000
    35 C8          32.3280    -8.1970     3.2090 C.ar         1 FAD401   0.0000
    36 C8M         32.1150    -9.6640     3.5160 C.3          1 FAD401   0.0000
    37 C9          31.8390    -7.2620     4.1030 C.ar         1 FAD401   0.0000
    38 C9A         31.9980    -5.8950     3.8870 C.ar         1 FAD401   0.0000
    39 N10         31.5150    -4.9090     4.7930 N.pl3        1 FAD401   0.0000
    40 C10         31.7510    -3.5580     4.5140 C.2          1 FAD401   0.0000
    41 C1'         30.8320    -5.2670     6.0250 C.3          1 FAD401   0.0000
    42 C2'         31.8810    -5.4440     7.1090 C.3          1 FAD401   0.0000
    43 O2'         33.0090    -6.1910     6.6340 O.3          1 FAD401   0.0000
    44 C3'         31.2810    -6.1050     8.3420 C.3          1 FAD401   0.0000
    45 O3'         30.0130    -5.4810     8.6290 O.3          1 FAD401   0.0000
    46 C4'         32.2060    -5.9530     9.5470 C.3          1 FAD401   0.0000
    47 O4'         33.5790    -6.0940     9.1810 O.3          1 FAD401   0.0000
    48 C5'         31.8990    -6.9850    10.6150 C.3          1 FAD401   0.0000
    49 O5'         32.6830    -6.6980    11.7810 O.3          1 FAD401   0.0000
    50 P           32.6270    -7.7100    13.0160 P.3          1 FAD401   0.0000
    51 O1P         33.7460    -7.3630    13.9630 O.co2        1 FAD401   0.0000
    52 O2P         31.2180    -7.7110    13.4890 O.co2        1 FAD401  -1.0000
    53 O3P         32.8410    -9.1390    12.3200 O.3          1 FAD401   0.0000
    54 H5B1        34.0036   -12.0564    13.6602 H            1 FAD401   0.0000
    55 H5B2        33.6978   -10.9625    14.8334 H            1 FAD401   0.0000
    56 H4B         36.0459   -11.0507    15.4318 H            1 FAD401   0.0000
    57 H3B         36.2771   -12.5168    13.1392 H            1 FAD401   0.0000
    58 H5          38.2073   -12.0424    15.1443 H            1 FAD401   0.0000
    59 H2B         35.8448   -14.4826    14.0849 H            1 FAD401   0.0000
    60 H7          38.2991   -14.5554    15.3487 H            1 FAD401   0.0000
    61 H1B         36.8370   -13.5684    16.6284 H            1 FAD401   0.0000
    62 H8A         34.1329   -15.5781    15.0088 H            1 FAD401   0.0000
    63 H6A1        33.9605   -19.0093    20.1258 H            1 FAD401   0.0000
    64 H6A2        33.3529   -18.7486    18.5249 H            1 FAD401   0.0000
    65 H2A         36.9295   -15.6324    20.7481 H            1 FAD401   0.0000
    66 H13         32.3824     0.0732     3.7338 H            1 FAD401   0.0000
    67 H14         33.6753    -6.0826     0.9339 H            1 FAD401   0.0000
    68 H7M1        33.3520    -9.6602     1.3011 H            1 FAD401   0.0000
    69 H7M2        33.1506    -8.5762     0.0965 H            1 FAD401   0.0000
    70 H7M3        34.5567    -8.6238     0.9255 H            1 FAD401   0.0000
    71 H8M1        31.6335    -9.7557     4.3876 H            1 FAD401   0.0000
    72 H8M2        31.5700   -10.0811     2.7886 H            1 FAD401   0.0000
    73 H8M3        33.0008   -10.1243     3.5745 H            1 FAD401   0.0000
    74 H21         31.3602    -7.5744     4.9235 H            1 FAD401   0.0000
    75 H1'1        30.3281    -6.1213     5.8977 H            1 FAD401   0.0000
    76 H1'2        30.1958    -4.5402     6.2839 H            1 FAD401   0.0000
    77 H2'         32.2042    -4.5357     7.3744 H            1 FAD401   0.0000
    78 H25         33.6782    -6.2886     7.3706 H            1 FAD401   0.0000
    79 H3'         31.1362    -7.0771     8.1577 H            1 FAD401   0.0000
    80 H27         30.0403    -5.0755     9.5427 H            1 FAD401   0.0000
    81 H4'         32.0728    -5.0420     9.9373 H            1 FAD401   0.0000
    82 H29         34.0924    -6.4712     9.9518 H            1 FAD401   0.0000
    83 H5'1        32.1261    -7.8974    10.2746 H            1 FAD401   0.0000
    84 H5'2        30.9270    -6.9482    10.8472 H            1 FAD401   0.0000
@<TRIPOS>BOND
     1    1    2      ar
     2    1    3      ar
     3    1    4       1
     4    1   53       1
     5    4    5       1
     6    5    6       1
     7    6    7       1
     8    6    8       1
     9    7   12       1
    10    8    9       1
    11    8   10       1
    12   10   11       1
    13   10   12       1
    14   12   13       1
    15   13   14       1
    16   13   22       1
    17   14   15       2
    18   15   16       1
    19   16   17      ar
    20   16   22      ar
    21   17   18       1
    22   17   19      ar
    23   19   20      ar
    24   20   21      ar
    25   21   22      ar
    26   23   24       1
    27   23   40       2
    28   24   25       2
    29   24   26       1
    30   26   27       1
    31   27   28       2
    32   27   29       1
    33   29   30       2
    34   29   40       1
    35   30   31       1
    36   31   32      ar
    37   31   38      ar
    38   32   33      ar
    39   33   34       1
    40   33   35      ar
    41   35   36       1
    42   35   37      ar
    43   37   38      ar
    44   38   39       1
    45   39   40       1
    46   39   41       1
    47   41   42       1
    48   42   43       1
    49   42   44       1
    50   44   45       1
    51   44   46       1
    52   46   47       1
    53   46   48       1
    54   48   49       1
    55   49   50       1
    56   50   51      ar
    57   50   52      ar
    58   50   53       1
    59   48   84       1
    60    5   54       1
    61    5   55       1
    62    6   56       1
    63    8   57       1
    64    9   58       1
    65   10   59       1
    66   11   60       1
    67   12   61       1
    68   14   62       1
    69   18   63       1
    70   18   64       1
    71   20   65       1
    72   26   66       1
    73   32   67       1
    74   34   68       1
    75   34   69       1
    76   34   70       1
    77   36   71       1
    78   36   72       1
    79   36   73       1
    80   37   74       1
    81   41   75       1
    82   41   76       1
    83   42   77       1
    84   43   78       1
    85   44   79       1
    86   45   80       1
    87   46   81       1
    88   47   82       1
    89   48   83       1
@<TRIPOS>SUBSTRUCTURE
     1 FAD401      1 GROUP             4 A     FAD     0 **** FAD A 401
