@<TRIPOS>MOLECULE
./coach420/1q8j/ligand.pdb
 33 35 0 0 0
SMALL
GASTEIGER

@<TRIPOS>ATOM
      1  N1        22.4800   -2.0430   39.4610 N.2   801  C2F801     -0.3550
      2  C2        22.7470   -3.2140   38.8670 C.2   801  C2F801      0.3020
      3  NA2       22.1670   -4.3290   39.3070 N.pl3 801  C2F801     -0.0763
      4  N3        23.6110   -3.2580   37.8410 N.am  801  C2F801     -0.1316
      5  C4        24.2290   -2.1490   37.4040 C.2   801  C2F801      0.2716
      6  O4        24.9340   -2.1990   36.2420 O.2   801  C2F801     -0.2709
      7  C4A       24.0000   -0.9190   38.0130 C.3   801  C2F801      0.2059
      8  N5        24.4040    0.2330   37.3210 N.3   801  C2F801     -0.2565
      9  C6        23.8570    1.4860   37.8730 C.3   801  C2F801      0.1018
     10  C7        23.6700    1.5070   39.3940 C.3   801  C2F801      0.1323
     11  N8        22.8920    0.3220   39.7830 N.pl3 801  C2F801     -0.2104
     12  C8A       23.0810   -0.9120   39.0560 C.2   801  C2F801      0.2027
     13  C9        22.5290    1.6930   37.1350 C.3   801  C2F801      0.1299
     14  N10       22.0240    3.0560   37.3560 N.pl3 801  C2F801     -0.2361
     15  C11       25.8750    0.3010   37.1490 C.3   801  C2F801      0.0904
     16  C12       23.4030    6.3910   35.3770 C.ar  801  C2F801      0.0551
     17  C13       22.4050    6.4960   36.3420 C.ar  801  C2F801      0.0059
     18  C14       21.9200    5.3540   36.9710 C.ar  801  C2F801      0.0162
     19  C15       22.4370    4.1030   36.6460 C.ar  801  C2F801      0.0654
     20  C16       23.4240    3.9970   35.6670 C.ar  801  C2F801      0.0162
     21  C17       23.9050    5.1390   35.0320 C.ar  801  C2F801      0.0059
     22  C         23.9640    7.6650   34.7400 C.2   801  C2F801      0.2652
     23  O         24.2320    7.7060   33.5400 O.2   801  C2F801     -0.2684
     24  N         24.1200    8.6790   35.5910 N.am  801  C2F801     -0.1918
     25  CA        24.6220   10.0200   35.2500 C.3   801  C2F801      0.1986
     26  CB        25.8220   10.0090   34.2970 C.3   801  C2F801      0.0451
     27  CG        27.1260    9.5920   34.9800 C.3   801  C2F801      0.1164
     28  CD        28.3130    9.7080   34.0190 C.2   801  C2F801      0.3649
     29  OE1       28.2600   10.6080   33.1510 O.co2 801  C2F801     -0.2457
     30  OE2       29.2540    8.8970   34.1680 O.co2 801  C2F801     -0.2457
     31  CT        23.4920   10.8490   34.6370 C.2   801  C2F801      0.3842
     32  O1        22.8100   11.5340   35.4290 O.co2 801  C2F801     -0.2437
     33  O2        23.3370   10.7740   33.3980 O.co2 801  C2F801     -0.2437
@<TRIPOS>BOND
     1     1     2    2
     2     1    12    2
     3     2     4    1
     4     2     3    1
     5     4     5   am
     6     5     6    2
     7     5     7    1
     8     7     8    1
     9     7    12    1
    10     8    15    1
    11     8     9    1
    12     9    13    1
    13     9    10    1
    14    10    11    1
    15    11    12    1
    16    13    14    1
    17    14    19    1
    18    16    22    1
    19    16    21   ar
    20    16    17   ar
    21    17    18   ar
    22    18    19   ar
    23    19    20   ar
    24    20    21   ar
    25    22    23    2
    26    22    24   am
    27    24    25    1
    28    25    26    1
    29    25    31    1
    30    26    27    1
    31    27    28    1
    32    28    29   ar
    33    28    30   ar
    34    31    33   ar
    35    31    32   ar
