@<TRIPOS>MOLECULE
1fw6_ADP_2_ligand
   39    41     1     0     0
SMALL
NO_CHARGES


@<TRIPOS>ATOM
     1 PB          68.3820    72.7230    87.3270 P.3          1 ADP1999   0.0000
     2 O1B         67.2350    73.2230    86.5180 O.co2        1 ADP1999   0.0000
     3 O2B         68.1280    71.7100    88.3570 O.co2        1 ADP1999  -1.0000
     4 O3B         69.4530    72.0770    86.3510 O.co2        1 ADP1999  -1.0000
     5 PA          70.1490    74.2130    89.1050 P.3          1 ADP1999   0.0000
     6 O1A         70.7370    72.9230    89.5310 O.co2        1 ADP1999   0.0000
     7 O2A         69.6130    74.9930    90.2610 O.co2        1 ADP1999  -1.0000
     8 O3A         69.1660    73.9940    87.8660 O.3          1 ADP1999   0.0000
     9 O5'         71.1880    75.0200    88.2280 O.3          1 ADP1999   0.0000
    10 C5'         72.2250    75.4500    89.0960 C.3          1 ADP1999   0.0000
    11 C4'         73.0800    76.4760    88.4650 C.3          1 ADP1999   0.0000
    12 O4'         72.0790    77.3870    87.9870 O.3          1 ADP1999   0.0000
    13 C3'         73.8420    77.2500    89.5260 C.3          1 ADP1999   0.0000
    14 O3'         75.1210    76.7820    89.9150 O.3          1 ADP1999   0.0000
    15 C2'         73.9160    78.5960    88.8700 C.3          1 ADP1999   0.0000
    16 O2'         74.8770    78.5860    87.8030 O.3          1 ADP1999   0.0000
    17 C1'         72.4770    78.6810    88.3410 C.3          1 ADP1999   0.0000
    18 N9          71.4240    79.2430    89.2100 N.pl3        1 ADP1999   0.0000
    19 C8          70.3140    78.6410    89.7640 C.2          1 ADP1999   0.0000
    20 N7          69.4950    79.4200    90.4120 N.2          1 ADP1999   0.0000
    21 C5          70.1160    80.6380    90.3040 C.ar         1 ADP1999   0.0000
    22 C6          69.7470    81.9470    90.7240 C.ar         1 ADP1999   0.0000
    23 N6          68.5950    82.1560    91.3600 N.pl3        1 ADP1999   0.0000
    24 N1          70.5830    83.0040    90.4620 N.ar         1 ADP1999   0.0000
    25 C2          71.7530    82.8000    89.7960 C.ar         1 ADP1999   0.0000
    26 N3          72.1820    81.6040    89.3370 N.ar         1 ADP1999   0.0000
    27 C4          71.3280    80.5600    89.6110 C.ar         1 ADP1999   0.0000
    28 H5'1        72.7909    74.6622    89.3390 H            1 ADP1999   0.0000
    29 H5'2        71.8157    75.8343    89.9235 H            1 ADP1999   0.0000
    30 H4'         73.6659    76.1137    87.7401 H            1 ADP1999   0.0000
    31 H3'         73.2677    77.3236    90.3413 H            1 ADP1999   0.0000
    32 H5          75.1568    75.7877    89.8149 H            1 ADP1999   0.0000
    33 H2'         74.1086    79.3194    89.5331 H            1 ADP1999   0.0000
    34 H7          74.9126    79.4905    87.3780 H            1 ADP1999   0.0000
    35 H1'         72.4976    79.2275    87.5038 H            1 ADP1999   0.0000
    36 H9          70.1466    77.6593    89.6733 H            1 ADP1999   0.0000
    37 H10         68.3449    83.0795    91.6510 H            1 ADP1999   0.0000
    38 H11         67.9805    81.3894    91.5464 H            1 ADP1999   0.0000
    39 H12         72.3383    83.5946    89.6346 H            1 ADP1999   0.0000
@<TRIPOS>BOND
     1    1    2      ar
     2    1    3      ar
     3    1    4      ar
     4    1    8       1
     5    5    6      ar
     6    5    7      ar
     7    5    8       1
     8    5    9       1
     9    9   10       1
    10   10   11       1
    11   11   12       1
    12   11   13       1
    13   12   17       1
    14   13   14       1
    15   13   15       1
    16   15   16       1
    17   15   17       1
    18   17   18       1
    19   18   19       1
    20   18   27       1
    21   19   20       2
    22   20   21       1
    23   21   22      ar
    24   21   27      ar
    25   22   23       1
    26   22   24      ar
    27   24   25      ar
    28   25   26      ar
    29   26   27      ar
    30   25   39       1
    31   23   38       1
    32   23   37       1
    33   10   28       1
    34   10   29       1
    35   11   30       1
    36   13   31       1
    37   14   32       1
    38   15   33       1
    39   16   34       1
    40   17   35       1
    41   19   36       1
@<TRIPOS>SUBSTRUCTURE
     1 ADP1999     1 GROUP             4 B     ADP     0 **** ADP B1999
