@<TRIPOS>MOLECULE
4rpg_FAD_2_ligand
   84    89     1     0     0
SMALL
NO_CHARGES


@<TRIPOS>ATOM
     1 PA          35.3550    13.7370   -26.4640 P.3          1 FAD401   0.0000
     2 O1A         35.7590    14.2530   -25.0780 O.co2        1 FAD401   0.0000
     3 O2A         33.8220    13.6280   -26.8380 O.co2        1 FAD401  -1.0000
     4 O5B         36.2180    14.8720   -27.1940 O.3          1 FAD401   0.0000
     5 C5B         35.8530    15.2310   -28.4670 C.3          1 FAD401   0.0000
     6 C4B         35.8590    16.7290   -28.8320 C.3          1 FAD401   0.0000
     7 O4B         36.1260    16.9580   -30.2040 O.3          1 FAD401   0.0000
     8 C3B         34.5640    17.4040   -28.5170 C.3          1 FAD401   0.0000
     9 O3B         34.7440    18.4210   -27.5960 O.3          1 FAD401   0.0000
    10 C2B         34.1300    17.9920   -29.7010 C.3          1 FAD401   0.0000
    11 O2B         33.5870    19.3060   -29.5610 O.3          1 FAD401   0.0000
    12 C1B         35.4120    18.0950   -30.5420 C.3          1 FAD401   0.0000
    13 N9A         35.1820    18.0910   -31.9430 N.pl3        1 FAD401   0.0000
    14 C8A         34.5530    17.1260   -32.6250 C.2          1 FAD401   0.0000
    15 N7A         34.5110    17.4630   -33.9270 N.2          1 FAD401   0.0000
    16 C5A         35.1200    18.6460   -34.0690 C.ar         1 FAD401   0.0000
    17 C6A         35.3740    19.4650   -35.1590 C.ar         1 FAD401   0.0000
    18 N6A         34.9620    19.0920   -36.4130 N.pl3        1 FAD401   0.0000
    19 N1A         36.0280    20.6290   -34.9770 N.ar         1 FAD401   0.0000
    20 C2A         36.4300    20.9910   -33.7430 C.ar         1 FAD401   0.0000
    21 N3A         36.1990    20.2240   -32.6740 N.ar         1 FAD401   0.0000
    22 C4A         35.5480    19.0490   -32.8100 C.ar         1 FAD401   0.0000
    23 N1          34.8740     7.9770   -18.7310 N.2          1 FAD401   0.0000
    24 C2          35.4080     7.5940   -17.4450 C.2          1 FAD401   0.0000
    25 O2          36.5880     7.3420   -17.3370 O.2          1 FAD401   0.0000
    26 N3          34.5620     7.5240   -16.3000 N.pl3        1 FAD401   0.0000
    27 C4          33.1930     7.8280   -16.4270 C.2          1 FAD401   0.0000
    28 O4          32.4550     7.7690   -15.4570 O.2          1 FAD401   0.0000
    29 C4X         32.6510     8.2170   -17.7390 C.2          1 FAD401   0.0000
    30 N5          31.3370     8.5050   -17.8490 N.2          1 FAD401   0.0000
    31 C5X         30.8450     8.8590   -19.0490 C.ar         1 FAD401   0.0000
    32 C6          29.4770     9.1510   -19.1260 C.ar         1 FAD401   0.0000
    33 C7          28.9230     9.5220   -20.3400 C.ar         1 FAD401   0.0000
    34 C7M         27.3800     9.8570   -20.3880 C.3          1 FAD401   0.0000
    35 C8          29.7060     9.6020   -21.4630 C.ar         1 FAD401   0.0000
    36 C8M         29.1170    10.0020   -22.7640 C.3          1 FAD401   0.0000
    37 C9          31.0650     9.3090   -21.3850 C.ar         1 FAD401   0.0000
    38 C9A         31.6260     8.9360   -20.1550 C.ar         1 FAD401   0.0000
    39 N10         32.9490     8.6530   -20.0680 N.pl3        1 FAD401   0.0000
    40 C10         33.4800     8.2870   -18.8590 C.2          1 FAD401   0.0000
    41 C1'         33.7680     8.6990   -21.2230 C.3          1 FAD401   0.0000
    42 C2'         34.5060    10.0570   -21.6030 C.3          1 FAD401   0.0000
    43 O2'         33.5570    11.1060   -21.6890 O.3          1 FAD401   0.0000
    44 C3'         35.4510    10.1260   -22.8230 C.3          1 FAD401   0.0000
    45 O3'         36.2110     9.0100   -22.9180 O.3          1 FAD401   0.0000
    46 C4'         36.3740    11.2690   -22.6740 C.3          1 FAD401   0.0000
    47 O4'         35.6780    12.5860   -22.7000 O.3          1 FAD401   0.0000
    48 C5'         37.5300    11.2640   -23.6870 C.3          1 FAD401   0.0000
    49 O5'         37.6230    12.3790   -24.5760 O.3          1 FAD401   0.0000
    50 P           37.7620    12.1180   -26.0810 P.3          1 FAD401   0.0000
    51 O1P         38.4230    13.5390   -26.3890 O.co2        1 FAD401   0.0000
    52 O2P         38.4850    10.8010   -26.5650 O.co2        1 FAD401  -1.0000
    53 O3P         36.2670    12.4060   -26.6390 O.3          1 FAD401   0.0000
    54 H5B1        34.9234    14.8935   -28.6151 H            1 FAD401   0.0000
    55 H5B2        36.4791    14.7701   -29.0960 H            1 FAD401   0.0000
    56 H4B         36.5779    17.1745   -28.2984 H            1 FAD401   0.0000
    57 H3B         33.8924    16.7417   -28.1849 H            1 FAD401   0.0000
    58 H5          34.9346    19.2766   -28.0772 H            1 FAD401   0.0000
    59 H2B         33.4691    17.3957   -30.1567 H            1 FAD401   0.0000
    60 H7          34.3181    19.9811   -29.6598 H            1 FAD401   0.0000
    61 H1B         35.9268    18.9120   -30.2822 H            1 FAD401   0.0000
    62 H8A         34.1749    16.2887   -32.2301 H            1 FAD401   0.0000
    63 H6A1        35.1467    19.6848   -37.1969 H            1 FAD401   0.0000
    64 H6A2        34.4769    18.2273   -36.5433 H            1 FAD401   0.0000
    65 H2A         36.9146    21.8576   -33.6241 H            1 FAD401   0.0000
    66 H13         34.9385     7.2606   -15.4118 H            1 FAD401   0.0000
    67 H14         28.9036     9.0919   -18.3089 H            1 FAD401   0.0000
    68 H7M1        27.1220    10.1069   -21.3213 H            1 FAD401   0.0000
    69 H7M2        26.8558     9.0554   -20.1005 H            1 FAD401   0.0000
    70 H7M3        27.1854    10.6208   -19.7726 H            1 FAD401   0.0000
    71 H8M1        29.8297    10.0060   -23.4654 H            1 FAD401   0.0000
    72 H8M2        28.4013     9.3521   -23.0198 H            1 FAD401   0.0000
    73 H8M3        28.7228    10.9176   -22.6840 H            1 FAD401   0.0000
    74 H21         31.6384     9.3643   -22.2024 H            1 FAD401   0.0000
    75 H1'1        33.1890     8.4545   -22.0008 H            1 FAD401   0.0000
    76 H1'2        34.4779     8.0047   -21.1047 H            1 FAD401   0.0000
    77 H2'         35.0765    10.2793   -20.8124 H            1 FAD401   0.0000
    78 H25         34.0227    11.9581   -21.9278 H            1 FAD401   0.0000
    79 H3'         34.9124    10.2368   -23.6583 H            1 FAD401   0.0000
    80 H27         35.6185     8.2108   -23.0186 H            1 FAD401   0.0000
    81 H4'         36.7888    11.1839   -21.7681 H            1 FAD401   0.0000
    82 H29         35.6275    12.9178   -23.6420 H            1 FAD401   0.0000
    83 H5'1        37.4367    10.4402   -24.2461 H            1 FAD401   0.0000
    84 H5'2        38.3841    11.2201   -23.1688 H            1 FAD401   0.0000
@<TRIPOS>BOND
     1    1    2      ar
     2    1    3      ar
     3    1    4       1
     4    1   53       1
     5    4    5       1
     6    5    6       1
     7    6    7       1
     8    6    8       1
     9    7   12       1
    10    8    9       1
    11    8   10       1
    12   10   11       1
    13   10   12       1
    14   12   13       1
    15   13   14       1
    16   13   22       1
    17   14   15       2
    18   15   16       1
    19   16   17      ar
    20   16   22      ar
    21   17   18       1
    22   17   19      ar
    23   19   20      ar
    24   20   21      ar
    25   21   22      ar
    26   23   24       1
    27   23   40       2
    28   24   25       2
    29   24   26       1
    30   26   27       1
    31   27   28       2
    32   27   29       1
    33   29   30       2
    34   29   40       1
    35   30   31       1
    36   31   32      ar
    37   31   38      ar
    38   32   33      ar
    39   33   34       1
    40   33   35      ar
    41   35   36       1
    42   35   37      ar
    43   37   38      ar
    44   38   39       1
    45   39   40       1
    46   39   41       1
    47   41   42       1
    48   42   43       1
    49   42   44       1
    50   44   45       1
    51   44   46       1
    52   46   47       1
    53   46   48       1
    54   48   49       1
    55   49   50       1
    56   50   51      ar
    57   50   52      ar
    58   50   53       1
    59   48   84       1
    60    5   54       1
    61    5   55       1
    62    6   56       1
    63    8   57       1
    64    9   58       1
    65   10   59       1
    66   11   60       1
    67   12   61       1
    68   14   62       1
    69   18   63       1
    70   18   64       1
    71   20   65       1
    72   26   66       1
    73   32   67       1
    74   34   68       1
    75   34   69       1
    76   34   70       1
    77   36   71       1
    78   36   72       1
    79   36   73       1
    80   37   74       1
    81   41   75       1
    82   41   76       1
    83   42   77       1
    84   43   78       1
    85   44   79       1
    86   45   80       1
    87   46   81       1
    88   47   82       1
    89   48   83       1
@<TRIPOS>SUBSTRUCTURE
     1 FAD401      1 GROUP             4 C     FAD     0 **** FAD C 401
