@<TRIPOS>MOLECULE
4gab_FID_1_ligand
   30    32     1     0     0
SMALL
NO_CHARGES


@<TRIPOS>ATOM
     1 C2I         -9.0290   -33.2600     5.0330 C.2          1 FID402   0.0000
     2 N4          -9.9750   -32.6500     5.7830 N.am         1 FID402   0.0000
     3 C5          -9.4880   -32.9230     7.0050 C.2          1 FID402   0.0000
     4 C7I         -8.1830   -33.6590     7.0440 C.3          1 FID402   0.0000
     5 C12         -7.1030   -32.7140     7.5280 C.ar         1 FID402   0.0000
     6 C13         -6.7380   -31.6200     6.7360 C.ar         1 FID402   0.0000
     7 C14         -5.7490   -30.7470     7.1720 C.ar         1 FID402   0.0000
     8 F17         -5.3970   -29.6960     6.4120 F            1 FID402   0.0000
     9 C15         -5.1040   -30.9450     8.3860 C.ar         1 FID402   0.0000
    10 C16         -5.4630   -32.0310     9.1750 C.ar         1 FID402   0.0000
    11 C11         -6.4540   -32.9030     8.7430 C.ar         1 FID402   0.0000
    12 O10         -6.7760   -33.9540     9.5400 O.3          1 FID402   0.0000
    13 C9          -8.0270   -34.5950     9.3630 C.3          1 FID402   0.0000
    14 C19         -8.0530   -35.8020    10.2390 C.2          1 FID402   0.0000
    15 N21         -7.0580   -35.9130    11.1260 N.am         1 FID402   0.0000
    16 O20         -8.9710   -36.6030    10.1300 O.2          1 FID402   0.0000
    17 C8I         -8.2050   -34.9420     7.8850 C.3          1 FID402   0.0000
    18 N1I         -7.9820   -33.8890     5.6220 N.am         1 FID402   0.0000
    19 O6I        -10.1540   -32.4560     8.1990 O.2          1 FID402   0.0000
    20 O3I         -9.1370   -33.2380     3.5850 O.2          1 FID402   0.0000
    21 H1         -10.7939   -32.1455     5.5092 H            1 FID402   0.0000
    22 H2          -7.1887   -31.4665     5.8566 H            1 FID402   0.0000
    23 H3          -4.3899   -30.3137     8.6886 H            1 FID402   0.0000
    24 H4          -5.0086   -32.1845    10.0525 H            1 FID402   0.0000
    25 H5          -8.7569   -33.9714     9.6431 H            1 FID402   0.0000
    26 H6          -7.0218   -36.7009    11.7408 H            1 FID402   0.0000
    27 H7          -6.3503   -35.2081    11.1743 H            1 FID402   0.0000
    28 H8I1        -7.4610   -35.5431     7.5931 H            1 FID402   0.0000
    29 H8I2        -9.0802   -35.4083     7.7565 H            1 FID402   0.0000
    30 H1I         -7.2414   -34.3950     5.1800 H            1 FID402   0.0000
@<TRIPOS>BOND
     1    1    2      am
     2    1   18      am
     3    1   20       2
     4    2    3      am
     5    3    4       1
     6    3   19       2
     7    4    5       1
     8    4   17       1
     9    4   18       1
    10    5    6      ar
    11    5   11      ar
    12    6    7      ar
    13    7    8       1
    14    7    9      ar
    15    9   10      ar
    16   10   11      ar
    17   11   12       1
    18   12   13       1
    19   13   14       1
    20   13   17       1
    21   14   15      am
    22   14   16       2
    23    2   21       1
    24    6   22       1
    25    9   23       1
    26   10   24       1
    27   13   25       1
    28   15   26       1
    29   15   27       1
    30   17   28       1
    31   17   29       1
    32   18   30       1
@<TRIPOS>SUBSTRUCTURE
     1 FID402      1 GROUP             4 A     FID     0 **** FID A 402
