@<TRIPOS>MOLECULE
2vuw_5ID_1_ligand
   33    35     1     0     0
SMALL
NO_CHARGES


@<TRIPOS>ATOM
     1 O2'         14.7290    -8.2350   -15.0450 O.3          1 5ID1800   0.0000
     2 C2'         13.6370    -8.7670   -14.2440 C.3          1 5ID1800   0.0000
     3 C3'         13.5100    -7.8440   -13.0420 C.3          1 5ID1800   0.0000
     4 O3'         13.4950    -6.4260   -13.4740 O.3          1 5ID1800   0.0000
     5 C4'         14.8430    -8.1300   -12.3770 C.3          1 5ID1800   0.0000
     6 C5'         14.5920    -7.5400   -10.9690 C.3          1 5ID1800   0.0000
     7 O5'         13.4440    -8.0860   -10.2640 O.3          1 5ID1800   0.0000
     8 O4'         14.7540    -9.5210   -12.2530 O.3          1 5ID1800   0.0000
     9 C1'         14.2630    -9.9730   -13.5570 C.3          1 5ID1800   0.0000
    10 N9          13.2150   -10.8810   -13.0030 N.pl3        1 5ID1800   0.0000
    11 C8          12.5830   -10.9040   -11.7930 C.2          1 5ID1800   0.0000
    12 C7          11.6780   -11.9210   -11.8430 C.2          1 5ID1800   0.0000
    13 C5          11.6900   -12.5250   -13.1250 C.ar         1 5ID1800   0.0000
    14 C4          12.6720   -11.8310   -13.8210 C.ar         1 5ID1800   0.0000
    15 N3          12.9910   -12.1700   -15.0860 N.ar         1 5ID1800   0.0000
    16 C2          12.3420   -13.1500   -15.7060 C.ar         1 5ID1800   0.0000
    17 N1          11.3890   -13.8490   -15.0560 N.ar         1 5ID1800   0.0000
    18 C6          11.0390   -13.5770   -13.7830 C.ar         1 5ID1800   0.0000
    19 N6          10.0610   -14.2890   -13.1860 N.pl3        1 5ID1800   0.0000
    20 IAE         10.4550   -12.5160   -10.2360 I            1 5ID1800   0.0000
    21 H2'         14.5105    -7.3012   -15.3282 H            1 5ID1800   0.0000
    22 H2          12.7875    -8.9471   -14.7399 H            1 5ID1800   0.0000
    23 H3'         12.7316    -8.0767   -12.4590 H            1 5ID1800   0.0000
    24 H4          12.5523    -6.1397   -13.6454 H            1 5ID1800   0.0000
    25 H4'         15.6510    -7.7863   -12.8555 H            1 5ID1800   0.0000
    26 H5'1        14.4547    -6.5543   -11.0667 H            1 5ID1800   0.0000
    27 H5'2        15.4057    -7.7097   -10.4130 H            1 5ID1800   0.0000
    28 H5'         12.7962    -7.3513   -10.0627 H            1 5ID1800   0.0000
    29 H1'         14.9530   -10.4407   -14.1095 H            1 5ID1800   0.0000
    30 H10         12.7517   -10.2927   -11.0198 H            1 5ID1800   0.0000
    31 H11         12.5607   -13.3697   -16.6567 H            1 5ID1800   0.0000
    32 H12          9.6132   -15.0348   -13.6792 H            1 5ID1800   0.0000
    33 H13          9.7838   -14.0710   -12.2503 H            1 5ID1800   0.0000
@<TRIPOS>BOND
     1    1    2       1
     2    2    3       1
     3    2    9       1
     4    3    4       1
     5    3    5       1
     6    5    6       1
     7    5    8       1
     8    6    7       1
     9    8    9       1
    10    9   10       1
    11   10   11       1
    12   10   14       1
    13   11   12       2
    14   12   13       1
    15   12   20       1
    16   13   14      ar
    17   13   18      ar
    18   14   15      ar
    19   15   16      ar
    20   16   17      ar
    21   17   18      ar
    22   18   19       1
    23    1   21       1
    24    2   22       1
    25    3   23       1
    26    4   24       1
    27    5   25       1
    28    6   26       1
    29    6   27       1
    30    7   28       1
    31    9   29       1
    32   11   30       1
    33   16   31       1
    34   19   32       1
    35   19   33       1
@<TRIPOS>SUBSTRUCTURE
     1 5ID1800     1 GROUP             4 A     5ID     0 **** 5ID A1800
