@<TRIPOS>MOLECULE
3bsy_ACO_1_ligand
   85    87     1     0     0
SMALL
NO_CHARGES


@<TRIPOS>ATOM
     1 N1A        -10.0210     9.7740    15.4560 N.ar         1 ACO401   0.0000
     2 C2A        -11.3320    10.1040    15.3600 C.ar         1 ACO401   0.0000
     3 N3A        -12.0890    10.4700    16.4130 N.ar         1 ACO401   0.0000
     4 C4A        -11.5350    10.5150    17.6560 C.ar         1 ACO401   0.0000
     5 C5A        -10.1130    10.1710    17.8300 C.ar         1 ACO401   0.0000
     6 C6A         -9.3580     9.7830    16.6250 C.ar         1 ACO401   0.0000
     7 N6A         -8.0500     9.4610    16.7380 N.pl3        1 ACO401   0.0000
     8 N7A         -9.8150    10.2930    19.1370 N.2          1 ACO401   0.0000
     9 C8A        -10.9540    10.6890    19.7520 C.2          1 ACO401   0.0000
    10 N9A        -11.9710    10.8120    18.8770 N.pl3        1 ACO401   0.0000
    11 C1B        -13.3580    11.2370    19.1910 C.3          1 ACO401   0.0000
    12 C2B        -14.0570    10.1790    20.0750 C.3          1 ACO401   0.0000
    13 O2B        -14.7760     9.2310    19.2960 O.3          1 ACO401   0.0000
    14 C3B        -14.9380    10.9860    21.0250 C.3          1 ACO401   0.0000
    15 O3B        -16.0760    11.4170    20.2970 O.3          1 ACO401   0.0000
    16 P3B        -17.5500    11.5460    20.9580 P.3          1 ACO401   0.0000
    17 O7A        -18.4520    11.1120    19.8270 O.co2        1 ACO401   0.0000
    18 O8A        -17.6070    13.0150    21.2810 O.co2        1 ACO401  -1.0000
    19 O9A        -17.5530    10.6510    22.1820 O.co2        1 ACO401  -1.0000
    20 C4B        -13.8230    11.9990    21.1530 C.3          1 ACO401   0.0000
    21 O4B        -13.3550    12.4910    19.9080 O.3          1 ACO401   0.0000
    22 C5B        -13.4350    12.6370    22.4490 C.3          1 ACO401   0.0000
    23 O5B        -12.7050    11.4470    22.8070 O.3          1 ACO401   0.0000
    24 P1A        -11.4950    11.3980    23.8270 P.3          1 ACO401   0.0000
    25 O1A        -10.9740     9.9790    23.8940 O.co2        1 ACO401   0.0000
    26 O2A        -11.9830    12.0770    25.0910 O.co2        1 ACO401  -1.0000
    27 O3A        -10.4540    12.3410    23.0470 O.3          1 ACO401   0.0000
    28 P2A         -9.2650    13.2200    23.6760 P.3          1 ACO401   0.0000
    29 O4A         -8.8180    12.7430    25.0230 O.co2        1 ACO401   0.0000
    30 O5A         -9.6540    14.6510    23.4140 O.co2        1 ACO401  -1.0000
    31 O6A         -8.0640    12.8350    22.6670 O.3          1 ACO401   0.0000
    32 CBP         -7.0020    12.6380    20.4930 C.3          1 ACO401   0.0000
    33 CCP         -8.2450    13.0700    21.2730 C.3          1 ACO401   0.0000
    34 CDP         -7.2910    13.0480    19.0610 C.3          1 ACO401   0.0000
    35 CEP         -5.7750    13.3710    21.0380 C.3          1 ACO401   0.0000
    36 CAP         -6.9530    11.1090    20.3370 C.3          1 ACO401   0.0000
    37 OAP         -7.7790    10.3100    21.1920 O.3          1 ACO401   0.0000
    38 C9P         -5.7370    10.4010    19.7930 C.2          1 ACO401   0.0000
    39 O9P         -5.9990     9.8740    18.7350 O.2          1 ACO401   0.0000
    40 N8P         -4.5360    10.3370    20.3820 N.am         1 ACO401   0.0000
    41 C7P         -3.3510     9.6580    19.8280 C.3          1 ACO401   0.0000
    42 C6P         -2.9300     8.4620    20.6860 C.3          1 ACO401   0.0000
    43 C5P         -1.8140     7.6810    19.9780 C.2          1 ACO401   0.0000
    44 O5P         -1.8680     7.4720    18.7690 O.2          1 ACO401   0.0000
    45 N4P         -0.8220     7.2300    20.7540 N.am         1 ACO401   0.0000
    46 C3P          0.4300     6.5210    20.4370 C.3          1 ACO401   0.0000
    47 C2P          0.2290     5.1380    19.8400 C.3          1 ACO401   0.0000
    48 S1P          1.7670     4.5590    19.1560 S.3          1 ACO401   0.0000
    49 C            3.0430     4.8840    20.1920 C.2          1 ACO401   0.0000
    50 O            3.8130     5.7980    19.9170 O.2          1 ACO401   0.0000
    51 CH3          3.2380     4.0650    21.4430 C.3          1 ACO401   0.0000
    52 H2A        -11.7615    10.0742    14.4574 H            1 ACO401   0.0000
    53 H6A1        -7.6049     9.4841    17.6332 H            1 ACO401   0.0000
    54 H6A2        -7.5275     9.1997    15.9264 H            1 ACO401   0.0000
    55 H8A        -11.0309    10.8678    20.7329 H            1 ACO401   0.0000
    56 H1B        -13.8704    11.3455    18.3391 H            1 ACO401   0.0000
    57 H2B        -13.3633     9.6968    20.6100 H            1 ACO401   0.0000
    58 H7         -14.3281     9.1203    18.4088 H            1 ACO401   0.0000
    59 H3B        -15.1566    10.5121    21.8780 H            1 ACO401   0.0000
    60 H4B        -13.1112    11.2992    21.2137 H            1 ACO401   0.0000
    61 H5B1       -14.2063    12.8411    23.0519 H            1 ACO401   0.0000
    62 H5B2       -12.8649    13.4525    22.3493 H            1 ACO401   0.0000
    63 HCP1        -8.4065    14.0452    21.1216 H            1 ACO401   0.0000
    64 HCP2        -9.0343    12.5474    20.9506 H            1 ACO401   0.0000
    65 HDP1        -6.5168    12.7973    18.4798 H            1 ACO401   0.0000
    66 HDP2        -8.1143    12.5799    18.7399 H            1 ACO401   0.0000
    67 HDP3        -7.4324    14.0371    19.0195 H            1 ACO401   0.0000
    68 HEP1        -4.9633    13.0877    20.5272 H            1 ACO401   0.0000
    69 HEP2        -5.9043    14.3575    20.9378 H            1 ACO401   0.0000
    70 HEP3        -5.6552    13.1470    22.0052 H            1 ACO401   0.0000
    71 HAP         -7.5184    11.0449    19.5147 H            1 ACO401   0.0000
    72 H21         -8.6681    10.1664    20.7573 H            1 ACO401   0.0000
    73 H8P         -4.4350    10.7863    21.2696 H            1 ACO401   0.0000
    74 H7P1        -2.5937    10.3098    19.7870 H            1 ACO401   0.0000
    75 H7P2        -3.5639     9.3360    18.9055 H            1 ACO401   0.0000
    76 H6P1        -3.7170     7.8616    20.8275 H            1 ACO401   0.0000
    77 H6P2        -2.5968     8.7888    21.5704 H            1 ACO401   0.0000
    78 H4P         -0.9548     7.4067    21.7293 H            1 ACO401   0.0000
    79 H3P1         0.9580     6.4246    21.2807 H            1 ACO401   0.0000
    80 H3P2         0.9459     7.0733    19.7821 H            1 ACO401   0.0000
    81 H2P1        -0.4610     5.1836    19.1177 H            1 ACO401   0.0000
    82 H2P2        -0.0768     4.5079    20.5538 H            1 ACO401   0.0000
    83 HH31         4.0421     4.3965    21.9365 H            1 ACO401   0.0000
    84 HH32         2.4303     4.1501    22.0264 H            1 ACO401   0.0000
    85 HH33         3.3709     3.1052    21.1957 H            1 ACO401   0.0000
@<TRIPOS>BOND
     1    1    2      ar
     2    1    6      ar
     3    2    3      ar
     4    3    4      ar
     5    4    5      ar
     6    4   10       1
     7    5    6      ar
     8    5    8       1
     9    6    7       1
    10    8    9       2
    11    9   10       1
    12   10   11       1
    13   11   12       1
    14   11   21       1
    15   12   13       1
    16   12   14       1
    17   14   15       1
    18   14   20       1
    19   15   16       1
    20   16   17      ar
    21   16   18      ar
    22   16   19      ar
    23   20   21       1
    24   20   22       1
    25   22   23       1
    26   23   24       1
    27   24   25      ar
    28   24   26      ar
    29   24   27       1
    30   27   28       1
    31   28   29      ar
    32   28   30      ar
    33   28   31       1
    34   31   33       1
    35   32   33       1
    36   32   34       1
    37   32   35       1
    38   32   36       1
    39   36   37       1
    40   36   38       1
    41   38   39       2
    42   38   40      am
    43   40   41       1
    44   41   42       1
    45   42   43       1
    46   43   44       2
    47   43   45      am
    48   45   46       1
    49   46   47       1
    50   47   48       1
    51   48   49       1
    52   49   50       2
    53   49   51       1
    54    2   52       1
    55    7   53       1
    56    7   54       1
    57    9   55       1
    58   11   56       1
    59   12   57       1
    60   13   58       1
    61   14   59       1
    62   51   85       1
    63   51   84       1
    64   20   60       1
    65   22   61       1
    66   22   62       1
    67   51   83       1
    68   47   82       1
    69   33   63       1
    70   33   64       1
    71   34   65       1
    72   34   66       1
    73   34   67       1
    74   35   68       1
    75   35   69       1
    76   35   70       1
    77   36   71       1
    78   37   72       1
    79   40   73       1
    80   41   74       1
    81   41   75       1
    82   42   76       1
    83   42   77       1
    84   45   78       1
    85   46   79       1
    86   46   80       1
    87   47   81       1
@<TRIPOS>SUBSTRUCTURE
     1 ACO401      1 GROUP             4 A     ACO     0 **** ACO A 401
