@<TRIPOS>MOLECULE
2kmx_ATP_1_ligand
   43    45     1     0     0
SMALL
NO_CHARGES


@<TRIPOS>ATOM
     1 PG         -14.1720    -4.4680   -10.8710 P.3          1 ATP1232   0.0000
     2 O1G        -13.4770    -4.8410   -12.1150 O.co2        1 ATP1232   0.0000
     3 O2G        -14.6850    -5.6020   -10.1120 O.co2        1 ATP1232  -1.0000
     4 O3G        -15.0960    -3.3420   -11.0080 O.co2        1 ATP1232  -1.0000
     5 PB         -12.6800    -4.0890    -8.5670 P.3          1 ATP1232   0.0000
     6 O1B        -11.7020    -5.2020    -8.5790 O.co2        1 ATP1232   0.0000
     7 O2B        -13.8710    -4.2270    -7.6880 O.co2        1 ATP1232  -1.0000
     8 O3B        -13.0870    -3.8630   -10.0230 O.3          1 ATP1232   0.0000
     9 PA         -12.5450    -1.4120    -8.2630 P.3          1 ATP1232   0.0000
    10 O1A        -14.0220    -1.4380    -8.2620 O.co2        1 ATP1232   0.0000
    11 O2A        -11.8490    -0.7180    -9.3620 O.co2        1 ATP1232  -1.0000
    12 O3A        -11.9390    -2.8150    -8.1570 O.3          1 ATP1232   0.0000
    13 O5'        -12.1100    -0.7310    -6.9000 O.3          1 ATP1232   0.0000
    14 C5'        -10.8070    -0.1870    -6.7460 C.3          1 ATP1232   0.0000
    15 C4'        -10.3970    -0.1110    -5.2740 C.3          1 ATP1232   0.0000
    16 O4'        -10.1840    -1.4260    -4.7790 O.3          1 ATP1232   0.0000
    17 C3'         -9.0550     0.6160    -5.1070 C.3          1 ATP1232   0.0000
    18 O3'         -9.1990     2.0140    -4.8800 O.3          1 ATP1232   0.0000
    19 C2'         -8.3860    -0.1600    -3.9560 C.3          1 ATP1232   0.0000
    20 O2'         -8.1530     0.5410    -2.7490 O.3          1 ATP1232   0.0000
    21 C1'         -9.3440    -1.3230    -3.6480 C.3          1 ATP1232   0.0000
    22 N9          -8.6220    -2.5960    -3.3680 N.pl3        1 ATP1232   0.0000
    23 C8          -8.7960    -3.8460    -3.9240 C.2          1 ATP1232   0.0000
    24 N7          -8.0230    -4.7780    -3.4180 N.2          1 ATP1232   0.0000
    25 C5          -7.2530    -4.0760    -2.4720 C.ar         1 ATP1232   0.0000
    26 C6          -6.1850    -4.4010    -1.5920 C.ar         1 ATP1232   0.0000
    27 N6          -5.6320    -5.5870    -1.4580 N.pl3        1 ATP1232   0.0000
    28 N1          -5.6080    -3.4680    -0.8460 N.ar         1 ATP1232   0.0000
    29 C2          -6.0680    -2.2360    -0.9220 C.ar         1 ATP1232   0.0000
    30 N3          -7.0520    -1.7700    -1.6810 N.ar         1 ATP1232   0.0000
    31 C4          -7.6130    -2.7530    -2.4420 C.ar         1 ATP1232   0.0000
    32 H5'1       -10.7922     0.7343    -7.1347 H            1 ATP1232   0.0000
    33 H5'2       -10.1542    -0.7656    -7.2350 H            1 ATP1232   0.0000
    34 H4'        -11.1075     0.3481    -4.7407 H            1 ATP1232   0.0000
    35 H3'         -8.5147     0.4822    -5.9377 H            1 ATP1232   0.0000
    36 H5          -8.2953     2.4302    -4.7797 H            1 ATP1232   0.0000
    37 H2'         -7.5186    -0.5355    -4.2826 H            1 ATP1232   0.0000
    38 H7          -7.7176    -0.0697    -2.0876 H            1 ATP1232   0.0000
    39 H1'         -9.8997    -1.0834    -2.8519 H            1 ATP1232   0.0000
    40 H9          -9.4566    -4.0272    -4.6525 H            1 ATP1232   0.0000
    41 H10         -4.8821    -5.7187    -0.8096 H            1 ATP1232   0.0000
    42 H11         -5.9615    -6.3569    -2.0045 H            1 ATP1232   0.0000
    43 H12         -5.6180    -1.5657    -0.3320 H            1 ATP1232   0.0000
@<TRIPOS>BOND
     1    1    2      ar
     2    1    3      ar
     3    1    4      ar
     4    1    8       1
     5    5    6      ar
     6    5    7      ar
     7    5    8       1
     8    5   12       1
     9    9   10      ar
    10    9   11      ar
    11    9   12       1
    12    9   13       1
    13   13   14       1
    14   14   15       1
    15   15   16       1
    16   15   17       1
    17   16   21       1
    18   17   18       1
    19   17   19       1
    20   19   20       1
    21   19   21       1
    22   21   22       1
    23   22   23       1
    24   22   31       1
    25   23   24       2
    26   24   25       1
    27   25   26      ar
    28   25   31      ar
    29   26   27       1
    30   26   28      ar
    31   28   29      ar
    32   29   30      ar
    33   30   31      ar
    34   29   43       1
    35   27   42       1
    36   27   41       1
    37   23   40       1
    38   14   32       1
    39   14   33       1
    40   15   34       1
    41   17   35       1
    42   18   36       1
    43   19   37       1
    44   20   38       1
    45   21   39       1
@<TRIPOS>SUBSTRUCTURE
     1 ATP1232     1 GROUP             4 A     ATP     0 **** ATP A1232
