@<TRIPOS>MOLECULE
3kjg_ADP_2_ligand
   39    41     1     0     0
SMALL
NO_CHARGES


@<TRIPOS>ATOM
     1 PB           8.0690   -24.1340   -42.0570 P.3          1 ADP500   0.0000
     2 O1B          8.2940   -24.6060   -40.6750 O.co2        1 ADP500   0.0000
     3 O2B          6.5940   -23.8600   -42.6430 O.co2        1 ADP500  -1.0000
     4 O3B          9.2670   -23.5230   -42.9420 O.co2        1 ADP500  -1.0000
     5 PA           8.0390   -26.8780   -41.9460 P.3          1 ADP500   0.0000
     6 O1A          6.6830   -27.3240   -41.5670 O.co2        1 ADP500   0.0000
     7 O2A          9.2900   -27.3190   -41.3030 O.co2        1 ADP500  -1.0000
     8 O3A          8.1780   -25.5410   -42.8220 O.3          1 ADP500   0.0000
     9 O5'          8.1360   -27.8160   -43.2440 O.3          1 ADP500   0.0000
    10 C5'          7.2600   -27.5320   -44.3350 C.3          1 ADP500   0.0000
    11 C4'          7.1480   -28.7310   -45.2780 C.3          1 ADP500   0.0000
    12 O4'          8.4650   -29.0050   -45.7870 O.3          1 ADP500   0.0000
    13 C3'          6.7390   -29.9560   -44.4530 C.3          1 ADP500   0.0000
    14 O3'          5.9410   -30.8510   -45.2310 O.3          1 ADP500   0.0000
    15 C2'          8.0990   -30.5860   -44.1550 C.3          1 ADP500   0.0000
    16 O2'          7.9720   -31.9900   -43.9080 O.3          1 ADP500   0.0000
    17 C1'          8.7340   -30.3910   -45.5290 C.3          1 ADP500   0.0000
    18 N9          10.2010   -30.5670   -45.4710 N.pl3        1 ADP500   0.0000
    19 C8          10.9760   -29.9950   -44.5530 C.2          1 ADP500   0.0000
    20 N7          12.2490   -30.2780   -44.8110 N.2          1 ADP500   0.0000
    21 C5          12.2770   -31.0390   -45.9020 C.ar         1 ADP500   0.0000
    22 C6          13.3030   -31.6190   -46.6270 C.ar         1 ADP500   0.0000
    23 N6          14.5670   -31.4310   -46.2610 N.pl3        1 ADP500   0.0000
    24 N1          13.0050   -32.3560   -47.7080 N.ar         1 ADP500   0.0000
    25 C2          11.7450   -32.5190   -48.0710 C.ar         1 ADP500   0.0000
    26 N3          10.7380   -31.9810   -47.4120 N.ar         1 ADP500   0.0000
    27 C4          10.9670   -31.2290   -46.3190 C.ar         1 ADP500   0.0000
    28 H5'1         7.6159   -26.7483   -44.8441 H            1 ADP500   0.0000
    29 H5'2         6.3526   -27.3125   -43.9766 H            1 ADP500   0.0000
    30 H4'          6.4990   -28.5550   -46.0181 H            1 ADP500   0.0000
    31 H3'          6.2699   -29.6879   -43.6115 H            1 ADP500   0.0000
    32 H5           5.6864   -31.6411   -44.6734 H            1 ADP500   0.0000
    33 H2'          8.5948   -30.1093   -43.4291 H            1 ADP500   0.0000
    34 H7           8.5131   -32.4968   -44.5791 H            1 ADP500   0.0000
    35 H1'          8.3166   -30.9839   -46.2176 H            1 ADP500   0.0000
    36 H9          10.6513   -29.4388   -43.7880 H            1 ADP500   0.0000
    37 H10         15.3073   -31.8509   -46.7860 H            1 ADP500   0.0000
    38 H11         14.7776   -30.8697   -45.4606 H            1 ADP500   0.0000
    39 H12         11.5471   -33.0736   -48.8793 H            1 ADP500   0.0000
@<TRIPOS>BOND
     1    1    2      ar
     2    1    3      ar
     3    1    4      ar
     4    1    8       1
     5    5    6      ar
     6    5    7      ar
     7    5    8       1
     8    5    9       1
     9    9   10       1
    10   10   11       1
    11   11   12       1
    12   11   13       1
    13   12   17       1
    14   13   14       1
    15   13   15       1
    16   15   16       1
    17   15   17       1
    18   17   18       1
    19   18   19       1
    20   18   27       1
    21   19   20       2
    22   20   21       1
    23   21   22      ar
    24   21   27      ar
    25   22   23       1
    26   22   24      ar
    27   24   25      ar
    28   25   26      ar
    29   26   27      ar
    30   25   39       1
    31   23   38       1
    32   23   37       1
    33   10   28       1
    34   10   29       1
    35   11   30       1
    36   13   31       1
    37   14   32       1
    38   15   33       1
    39   16   34       1
    40   17   35       1
    41   19   36       1
@<TRIPOS>SUBSTRUCTURE
     1 ADP500      1 GROUP             4 B     ADP     0 **** ADP B 500
