@<TRIPOS>MOLECULE
3rk1_ATP_1_ligand
   43    45     1     0     0
SMALL
NO_CHARGES


@<TRIPOS>ATOM
     1 PG          17.5360    12.5130    32.6170 P.3          1 ATP301   0.0000
     2 O1G         18.6380    13.4290    32.4480 O.co2        1 ATP301   0.0000
     3 O2G         17.2690    12.2050    34.0070 O.co2        1 ATP301  -1.0000
     4 O3G         16.2420    13.1610    31.9040 O.co2        1 ATP301  -1.0000
     5 PB          17.0460     9.7760    31.9040 P.3          1 ATP301   0.0000
     6 O1B         17.6760     8.8260    30.9710 O.co2        1 ATP301   0.0000
     7 O2B         15.5620     9.9750    31.7120 O.co2        1 ATP301  -1.0000
     8 O3B         17.8670    11.1330    31.7790 O.3          1 ATP301   0.0000
     9 PA          16.3580     9.0220    34.6340 P.3          1 ATP301   0.0000
    10 O1A         17.1470     9.1120    35.8790 O.co2        1 ATP301   0.0000
    11 O2A         15.2130    10.0300    34.6190 O.co2        1 ATP301  -1.0000
    12 O3A         17.3590     9.2870    33.4040 O.3          1 ATP301   0.0000
    13 O5'         15.8440     7.5310    34.4210 O.3          1 ATP301   0.0000
    14 C5'         16.6400     6.4460    34.8150 C.3          1 ATP301   0.0000
    15 C4'         16.6600     5.3460    33.7530 C.3          1 ATP301   0.0000
    16 O4'         15.4750     4.5530    33.7080 O.3          1 ATP301   0.0000
    17 C3'         16.8970     5.8420    32.3450 C.3          1 ATP301   0.0000
    18 O3'         18.3050     5.9260    32.1200 O.3          1 ATP301   0.0000
    19 C2'         16.1800     4.8230    31.4830 C.3          1 ATP301   0.0000
    20 O2'         16.9210     3.7320    31.0380 O.3          1 ATP301   0.0000
    21 C1'         15.0020     4.4220    32.3620 C.3          1 ATP301   0.0000
    22 N9          13.7300     5.2330    32.2500 N.pl3        1 ATP301   0.0000
    23 C8          13.3940     6.3550    32.9830 C.2          1 ATP301   0.0000
    24 N7          12.2170     6.7740    32.5550 N.2          1 ATP301   0.0000
    25 C5          11.7330     5.9830    31.5650 C.ar         1 ATP301   0.0000
    26 C6          10.5840     5.9260    30.7250 C.ar         1 ATP301   0.0000
    27 N6           9.6090     6.8330    30.6630 N.pl3        1 ATP301   0.0000
    28 N1          10.4660     4.8870    29.7920 N.ar         1 ATP301   0.0000
    29 C2          11.4500     3.9300    29.6590 C.ar         1 ATP301   0.0000
    30 N3          12.5880     3.9820    30.4570 N.ar         1 ATP301   0.0000
    31 C4          12.7190     4.9820    31.3800 C.ar         1 ATP301   0.0000
    32 H5'1        16.2754     6.0684    35.6662 H            1 ATP301   0.0000
    33 H5'2        17.5747     6.7676    34.9665 H            1 ATP301   0.0000
    34 H4'         17.4162     4.7321    33.9797 H            1 ATP301   0.0000
    35 H3'         16.4790     6.7427    32.2264 H            1 ATP301   0.0000
    36 H5          18.5517     6.8698    31.8999 H            1 ATP301   0.0000
    37 H2'         15.8183     5.2979    30.6807 H            1 ATP301   0.0000
    38 H7          16.9306     3.7211    30.0381 H            1 ATP301   0.0000
    39 H1'         14.7859     3.4609    32.1900 H            1 ATP301   0.0000
    40 H9          13.9427     6.7739    33.7065 H            1 ATP301   0.0000
    41 H10          8.8410     6.6995    30.0366 H            1 ATP301   0.0000
    42 H11          9.6456     7.6469    31.2429 H            1 ATP301   0.0000
    43 H12         11.3451     3.1968    28.9871 H            1 ATP301   0.0000
@<TRIPOS>BOND
     1    1    2      ar
     2    1    3      ar
     3    1    4      ar
     4    1    8       1
     5    5    6      ar
     6    5    7      ar
     7    5    8       1
     8    5   12       1
     9    9   10      ar
    10    9   11      ar
    11    9   12       1
    12    9   13       1
    13   13   14       1
    14   14   15       1
    15   15   16       1
    16   15   17       1
    17   16   21       1
    18   17   18       1
    19   17   19       1
    20   19   20       1
    21   19   21       1
    22   21   22       1
    23   22   23       1
    24   22   31       1
    25   23   24       2
    26   24   25       1
    27   25   26      ar
    28   25   31      ar
    29   26   27       1
    30   26   28      ar
    31   28   29      ar
    32   29   30      ar
    33   30   31      ar
    34   29   43       1
    35   27   42       1
    36   27   41       1
    37   23   40       1
    38   14   32       1
    39   14   33       1
    40   15   34       1
    41   17   35       1
    42   18   36       1
    43   19   37       1
    44   20   38       1
    45   21   39       1
@<TRIPOS>SUBSTRUCTURE
     1 ATP301      1 GROUP             4 A     ATP     0 **** ATP A 301
