@<TRIPOS>MOLECULE
4bcs_BTN_2_ligand
   31    32     1     0     0
SMALL
NO_CHARGES


@<TRIPOS>ATOM
     1 C11         86.8940    13.5800    14.4940 C.2          1 BTN1128   0.0000
     2 O11         87.8340    12.8640    14.8890 O.co2        1 BTN1128   0.0000
     3 O12         86.5930    14.6100    15.1120 O.co2        1 BTN1128  -1.0000
     4 C10         86.1130    13.1420    13.2580 C.3          1 BTN1128   0.0000
     5 C9          84.6250    13.5040    13.3590 C.3          1 BTN1128   0.0000
     6 C8          83.8560    12.6440    14.3910 C.3          1 BTN1128   0.0000
     7 C7          82.3880    13.1050    14.5340 C.3          1 BTN1128   0.0000
     8 C2          81.6050    12.1300    15.4740 C.3          1 BTN1128   0.0000
     9 S1          81.2080    10.5580    14.7320 S.3          1 BTN1128   0.0000
    10 C6          80.1710    10.1910    16.1210 C.3          1 BTN1128   0.0000
    11 C5          79.4770    11.4920    16.5410 C.3          1 BTN1128   0.0000
    12 N1          78.2090    11.6680    15.8390 N.am         1 BTN1128   0.0000
    13 C3          78.2440    12.7500    15.0390 C.2          1 BTN1128   0.0000
    14 O3          77.2940    13.1860    14.4030 O.2          1 BTN1128   0.0000
    15 N2          79.4490    13.3290    15.0770 N.am         1 BTN1128   0.0000
    16 C4          80.3100    12.6960    16.0790 C.3          1 BTN1128   0.0000
    17 H1          86.1978    12.1507    13.1572 H            1 BTN1128   0.0000
    18 H2          86.5011    13.5932    12.4544 H            1 BTN1128   0.0000
    19 H3          84.2047    13.3739    12.4610 H            1 BTN1128   0.0000
    20 H4          84.5492    14.4646    13.6265 H            1 BTN1128   0.0000
    21 H5          84.3085    12.7213    15.2794 H            1 BTN1128   0.0000
    22 H6          83.8689    11.6898    14.0922 H            1 BTN1128   0.0000
    23 H7          81.9551    13.1136    13.6326 H            1 BTN1128   0.0000
    24 H8          82.3674    14.0262    14.9225 H            1 BTN1128   0.0000
    25 H9          82.2123    11.9326    16.2435 H            1 BTN1128   0.0000
    26 H10         80.7249     9.8411    16.8765 H            1 BTN1128   0.0000
    27 H11         79.4874     9.5077    15.8646 H            1 BTN1128   0.0000
    28 H12         79.3395    11.5159    17.5312 H            1 BTN1128   0.0000
    29 H13         77.4183    11.0640    15.9393 H            1 BTN1128   0.0000
    30 H14         79.7263    14.0947    14.4967 H            1 BTN1128   0.0000
    31 H15         80.5038    13.3177    16.8379 H            1 BTN1128   0.0000
@<TRIPOS>BOND
     1    1    2      ar
     2    1    3      ar
     3    1    4       1
     4    4    5       1
     5    5    6       1
     6    6    7       1
     7    7    8       1
     8    8    9       1
     9    8   16       1
    10    9   10       1
    11   10   11       1
    12   11   12       1
    13   11   16       1
    14   12   13      am
    15   13   14       2
    16   13   15      am
    17   15   16       1
    18   16   31       1
    19    4   17       1
    20    4   18       1
    21    5   19       1
    22    5   20       1
    23    6   21       1
    24    6   22       1
    25    7   23       1
    26    7   24       1
    27    8   25       1
    28   10   26       1
    29   10   27       1
    30   11   28       1
    31   12   29       1
    32   15   30       1
@<TRIPOS>SUBSTRUCTURE
     1 BTN1128     1 GROUP             4 B     BTN     0 **** BTN B1128
