@<TRIPOS>MOLECULE
2p9h_IPT_1_ligand
   33    33     1     0     0
SMALL
NO_CHARGES


@<TRIPOS>ATOM
     1 C1          18.2250   -11.0810     1.0060 C.3          1 IPT998   0.0000
     2 C2          19.3760   -10.2470     1.6290 C.3          1 IPT998   0.0000
     3 O2          19.1540    -8.8500     1.2940 O.3          1 IPT998   0.0000
     4 C3          20.7150   -10.7360     1.0900 C.3          1 IPT998   0.0000
     5 O3          21.8210   -10.1750     1.8320 O.3          1 IPT998   0.0000
     6 C4          20.8150   -12.2750     1.1140 C.3          1 IPT998   0.0000
     7 O4          20.9300   -12.6530     2.4810 O.3          1 IPT998   0.0000
     8 C5          19.5230   -12.9120     0.5490 C.3          1 IPT998   0.0000
     9 O5          18.3910   -12.3860     1.3430 O.3          1 IPT998   0.0000
    10 C6          19.5230   -14.4170     0.6230 C.3          1 IPT998   0.0000
    11 O6          18.6160   -14.8880    -0.4300 O.3          1 IPT998   0.0000
    12 S1          16.7430   -10.5400     1.8420 S.3          1 IPT998   0.0000
    13 C1'         15.4060   -11.4290     0.9490 C.3          1 IPT998   0.0000
    14 C2'         14.1580   -11.4160     1.8370 C.3          1 IPT998   0.0000
    15 C3'         15.1210   -10.7540    -0.3980 C.3          1 IPT998   0.0000
    16 H1          18.1641   -10.9545     0.0159 H            1 IPT998   0.0000
    17 H2          19.3611   -10.3546     2.6231 H            1 IPT998   0.0000
    18 H3          19.5282    -8.2701     2.0177 H            1 IPT998   0.0000
    19 H4          20.7950   -10.4351     0.1397 H            1 IPT998   0.0000
    20 H5          21.5650    -9.2736     2.1813 H            1 IPT998   0.0000
    21 H6          21.6134   -12.5829     0.5965 H            1 IPT998   0.0000
    22 H7          20.9980   -13.6485     2.5470 H            1 IPT998   0.0000
    23 H8          19.4110   -12.6320    -0.4044 H            1 IPT998   0.0000
    24 H9          19.1975   -14.7185     1.5192 H            1 IPT998   0.0000
    25 H10         20.4455   -14.7702     0.4673 H            1 IPT998   0.0000
    26 H11         18.9205   -15.7828    -0.7566 H            1 IPT998   0.0000
    27 H1'         15.6880   -12.3752     0.7905 H            1 IPT998   0.0000
    28 H2'1        13.4133   -11.8951     1.3724 H            1 IPT998   0.0000
    29 H2'2        14.3601   -11.8739     2.7027 H            1 IPT998   0.0000
    30 H2'3        13.8858   -10.4705     2.0156 H            1 IPT998   0.0000
    31 H3'1        14.3921   -11.2488    -0.8712 H            1 IPT998   0.0000
    32 H3'2        14.8357    -9.8082    -0.2431 H            1 IPT998   0.0000
    33 H3'3        15.9493   -10.7648    -0.9581 H            1 IPT998   0.0000
@<TRIPOS>BOND
     1    1    2       1
     2    1    9       1
     3    1   12       1
     4    2    3       1
     5    2    4       1
     6    4    5       1
     7    4    6       1
     8    6    7       1
     9    6    8       1
    10    8    9       1
    11    8   10       1
    12   10   11       1
    13   12   13       1
    14   13   14       1
    15   13   15       1
    16    1   16       1
    17    2   17       1
    18    3   18       1
    19    4   19       1
    20    5   20       1
    21    6   21       1
    22    7   22       1
    23    8   23       1
    24   10   24       1
    25   10   25       1
    26   11   26       1
    27   13   27       1
    28   14   28       1
    29   14   29       1
    30   14   30       1
    31   15   31       1
    32   15   32       1
    33   15   33       1
@<TRIPOS>SUBSTRUCTURE
     1 IPT998      1 GROUP             4 A     IPT     0 **** IPT A 998
