@<TRIPOS>MOLECULE
2x19_GTP_1_ligand
   44    46     1     0     0
SMALL
NO_CHARGES


@<TRIPOS>ATOM
     1 PG         -51.1650    16.3480     3.9070 P.3          1 GTP1181   0.0000
     2 O1G        -50.1850    17.4220     3.6600 O.co2        1 GTP1181   0.0000
     3 O2G        -50.4320    14.9600     4.2180 O.co2        1 GTP1181  -1.0000
     4 O3G        -52.0700    16.1090     2.6130 O.co2        1 GTP1181  -1.0000
     5 O3B        -52.1250    16.7280     5.1410 O.3          1 GTP1181   0.0000
     6 PB         -52.8720    18.1280     4.8540 P.3          1 GTP1181   0.0000
     7 O1B        -51.8600    19.1930     5.1650 O.co2        1 GTP1181   0.0000
     8 O2B        -53.4340    18.3160     3.3600 O.co2        1 GTP1181  -1.0000
     9 O3A        -53.9600    18.1330     6.0130 O.3          1 GTP1181   0.0000
    10 PA         -55.1560    19.1610     5.8180 P.3          1 GTP1181   0.0000
    11 O1A        -54.6810    20.5510     5.6890 O.co2        1 GTP1181   0.0000
    12 O2A        -56.0320    18.7580     4.5170 O.co2        1 GTP1181  -1.0000
    13 O5'        -55.9610    18.8760     7.1890 O.3          1 GTP1181   0.0000
    14 C5'        -57.1230    19.6090     7.1910 C.3          1 GTP1181   0.0000
    15 C4'        -57.8610    19.3580     8.4830 C.3          1 GTP1181   0.0000
    16 O4'        -57.0740    19.9210     9.5850 O.3          1 GTP1181   0.0000
    17 C3'        -59.1620    20.1030     8.3670 C.3          1 GTP1181   0.0000
    18 O3'        -60.2560    19.1950     8.3470 O.3          1 GTP1181   0.0000
    19 C2'        -59.2170    21.0810     9.5170 C.3          1 GTP1181   0.0000
    20 O2'        -60.3840    20.9040    10.3190 O.3          1 GTP1181   0.0000
    21 C1'        -57.9210    20.8610    10.3120 C.3          1 GTP1181   0.0000
    22 N9         -57.3070    22.1560    10.4960 N.pl3        1 GTP1181   0.0000
    23 C8         -56.5660    22.8870     9.5950 C.2          1 GTP1181   0.0000
    24 N7         -56.2230    24.0250    10.1350 N.2          1 GTP1181   0.0000
    25 C5         -56.7290    24.0890    11.3970 C.2          1 GTP1181   0.0000
    26 C6         -56.7130    25.0650    12.4640 C.2          1 GTP1181   0.0000
    27 O6         -56.1330    26.1250    12.3350 O.2          1 GTP1181   0.0000
    28 N1         -57.3640    24.7650    13.6400 N.pl3        1 GTP1181   0.0000
    29 C2         -58.0330    23.5630    13.7920 C.2          1 GTP1181   0.0000
    30 N2         -58.6750    23.2900    14.9750 N.pl3        1 GTP1181   0.0000
    31 N3         -58.0480    22.6590    12.8180 N.2          1 GTP1181   0.0000
    32 C4         -57.4490    22.9000    11.6180 C.2          1 GTP1181   0.0000
    33 H5'1       -57.6952    19.3322     6.4190 H            1 GTP1181   0.0000
    34 H5'2       -56.9056    20.5819     7.1128 H            1 GTP1181   0.0000
    35 H4'        -58.0198    18.3802     8.6200 H            1 GTP1181   0.0000
    36 H3'        -59.1593    20.6182     7.5099 H            1 GTP1181   0.0000
    37 H5         -61.0034    19.5854     7.8094 H            1 GTP1181   0.0000
    38 H2'        -59.2161    22.0111     9.1497 H            1 GTP1181   0.0000
    39 H7         -60.9337    20.1559     9.9472 H            1 GTP1181   0.0000
    40 H1'        -58.1466    20.4750    11.2065 H            1 GTP1181   0.0000
    41 H9         -56.3274    22.5919     8.6698 H            1 GTP1181   0.0000
    42 H10        -57.3532    25.4232    14.3927 H            1 GTP1181   0.0000
    43 H11        -59.1604    22.4236    15.0921 H            1 GTP1181   0.0000
    44 H12        -58.6570    23.9576    15.7193 H            1 GTP1181   0.0000
@<TRIPOS>BOND
     1    1    2      ar
     2    1    3      ar
     3    1    4      ar
     4    1    5       1
     5    5    6       1
     6    6    7      ar
     7    6    8      ar
     8    6    9       1
     9    9   10       1
    10   10   11      ar
    11   10   12      ar
    12   10   13       1
    13   13   14       1
    14   14   15       1
    15   15   16       1
    16   15   17       1
    17   16   21       1
    18   17   18       1
    19   17   19       1
    20   19   20       1
    21   19   21       1
    22   21   22       1
    23   22   23       1
    24   22   32       1
    25   23   24       2
    26   24   25       1
    27   25   26       1
    28   25   32       2
    29   26   27       2
    30   26   28       1
    31   28   29       1
    32   29   30       1
    33   29   31       2
    34   31   32       1
    35   30   44       1
    36   30   43       1
    37   28   42       1
    38   23   41       1
    39   14   33       1
    40   14   34       1
    41   15   35       1
    42   17   36       1
    43   18   37       1
    44   19   38       1
    45   20   39       1
    46   21   40       1
@<TRIPOS>SUBSTRUCTURE
     1 GTP1181     1 GROUP             4 A     GTP     0 **** GTP A1181
