@<TRIPOS>MOLECULE
4jem_C5P_2_ligand
   33    34     1     0     0
SMALL
NO_CHARGES


@<TRIPOS>ATOM
     1 O3P         13.5920    17.8510    20.6210 O.co2        1 C5P201   0.0000
     2 P           13.5730    19.3650    20.3640 P.3          1 C5P201   0.0000
     3 O1P         14.4680    20.1210    21.3010 O.co2        1 C5P201  -1.0000
     4 O2P         13.7660    19.6640    18.8770 O.co2        1 C5P201  -1.0000
     5 O5'         12.0620    19.7630    20.6910 O.3          1 C5P201   0.0000
     6 C5'         11.6680    21.1180    20.6340 C.3          1 C5P201   0.0000
     7 C4'         10.2180    21.3030    20.9800 C.3          1 C5P201   0.0000
     8 O4'          9.9290    20.7350    22.2850 O.3          1 C5P201   0.0000
     9 C3'          9.7420    22.7590    21.0380 C.3          1 C5P201   0.0000
    10 O3'          8.6230    22.9820    20.2010 O.3          1 C5P201   0.0000
    11 C2'          9.5100    23.0700    22.5320 C.3          1 C5P201   0.0000
    12 O2'          8.1500    23.4270    22.7830 O.3          1 C5P201   0.0000
    13 C1'          9.8350    21.7480    23.2540 C.3          1 C5P201   0.0000
    14 N1          11.1250    21.8130    24.0020 N.pl3        1 C5P201   0.0000
    15 C2          11.1050    22.7760    25.1160 C.2          1 C5P201   0.0000
    16 N3          12.2630    22.9800    25.9320 N.2          1 C5P201   0.0000
    17 C4          13.4680    22.2590    25.7000 C.2          1 C5P201   0.0000
    18 C5          13.5320    21.2910    24.6060 C.2          1 C5P201   0.0000
    19 C6          12.3420    21.0900    23.7780 C.2          1 C5P201   0.0000
    20 O2          10.1320    23.4350    25.4430 O.2          1 C5P201   0.0000
    21 N4          14.5950    22.4990    26.5200 N.pl3        1 C5P201   0.0000
    22 H5'1        11.8240    21.4599    19.7073 H            1 C5P201   0.0000
    23 H5'2        12.2226    21.6420    21.2804 H            1 C5P201   0.0000
    24 H4'          9.6684    20.8198    20.2985 H            1 C5P201   0.0000
    25 H3'         10.4889    23.3402    20.7149 H            1 C5P201   0.0000
    26 H5           7.8678    22.3939    20.4904 H            1 C5P201   0.0000
    27 H2'         10.1251    23.7966    22.8381 H            1 C5P201   0.0000
    28 H7           7.5525    22.6697    22.5193 H            1 C5P201   0.0000
    29 H1'          9.0952    21.5287    23.8901 H            1 C5P201   0.0000
    30 H9          14.3711    20.7772    24.4273 H            1 C5P201   0.0000
    31 H10         12.3793    20.4261    23.0311 H            1 C5P201   0.0000
    32 H11         15.4445    21.9957    26.3621 H            1 C5P201   0.0000
    33 H12         14.5423    23.1720    27.2577 H            1 C5P201   0.0000
@<TRIPOS>BOND
     1    1    2      ar
     2    2    3      ar
     3    2    4      ar
     4    2    5       1
     5    5    6       1
     6    6    7       1
     7    7    8       1
     8    7    9       1
     9    8   13       1
    10    9   10       1
    11    9   11       1
    12   11   12       1
    13   11   13       1
    14   13   14       1
    15   14   15       1
    16   14   19       1
    17   15   16       1
    18   15   20       2
    19   16   17       2
    20   17   18       1
    21   17   21       1
    22   18   19       2
    23   21   33       1
    24   21   32       1
    25    6   22       1
    26    6   23       1
    27    7   24       1
    28    9   25       1
    29   10   26       1
    30   11   27       1
    31   12   28       1
    32   13   29       1
    33   18   30       1
    34   19   31       1
@<TRIPOS>SUBSTRUCTURE
     1 C5P201      1 GROUP             4 B     C5P     0 **** C5P B 201
