@<TRIPOS>MOLECULE
4rhe_FMN_1_ligand
   50    52     1     0     0
SMALL
NO_CHARGES


@<TRIPOS>ATOM
     1 N1         -28.7580   -28.9860     4.9980 N.2          1 FMN301   0.0000
     2 C2         -28.1940   -28.1020     5.8600 C.2          1 FMN301   0.0000
     3 O2         -28.2130   -26.9050     5.4800 O.2          1 FMN301   0.0000
     4 N3         -27.6230   -28.4670     7.0920 N.pl3        1 FMN301   0.0000
     5 C4         -27.6450   -29.7320     7.5590 C.2          1 FMN301   0.0000
     6 O4         -27.2020   -30.1910     8.6550 O.2          1 FMN301   0.0000
     7 C4A        -28.2470   -30.7240     6.6990 C.2          1 FMN301   0.0000
     8 N5         -28.2830   -31.9920     7.1410 N.2          1 FMN301   0.0000
     9 C5A        -28.8770   -32.9920     6.4160 C.ar         1 FMN301   0.0000
    10 C6         -28.9270   -34.3000     6.9200 C.ar         1 FMN301   0.0000
    11 C7         -29.5340   -35.3290     6.2150 C.ar         1 FMN301   0.0000
    12 C7M        -29.5250   -36.7240     6.8170 C.3          1 FMN301   0.0000
    13 C8         -30.1410   -35.0220     4.8760 C.ar         1 FMN301   0.0000
    14 C8M        -30.7950   -36.1110     4.0570 C.3          1 FMN301   0.0000
    15 C9         -30.0910   -33.7180     4.3610 C.ar         1 FMN301   0.0000
    16 C9A        -29.4840   -32.6520     5.0760 C.ar         1 FMN301   0.0000
    17 N10        -29.4180   -31.2770     4.6080 N.pl3        1 FMN301   0.0000
    18 C10        -28.8070   -30.2920     5.3980 C.2          1 FMN301   0.0000
    19 C1'        -29.9280   -30.7960     3.2930 C.3          1 FMN301   0.0000
    20 C2'        -31.3400   -30.2650     3.3430 C.3          1 FMN301   0.0000
    21 O2'        -32.1560   -31.3450     3.8340 O.3          1 FMN301   0.0000
    22 C3'        -31.6590   -29.8680     1.8980 C.3          1 FMN301   0.0000
    23 O3'        -30.8800   -28.7370     1.3930 O.3          1 FMN301   0.0000
    24 C4'        -33.1410   -29.5960     1.7140 C.3          1 FMN301   0.0000
    25 O4'        -33.2690   -29.0850     0.3760 O.3          1 FMN301   0.0000
    26 C5'        -33.6910   -28.6220     2.7630 C.3          1 FMN301   0.0000
    27 O5'        -35.0790   -28.4300     2.4570 O.3          1 FMN301   0.0000
    28 P          -35.9550   -27.7960     3.6250 P.3          1 FMN301   0.0000
    29 O1P        -36.1470   -28.6810     4.7800 O.co2        1 FMN301   0.0000
    30 O2P        -35.1440   -26.5080     3.8330 O.co2        1 FMN301  -1.0000
    31 O3P        -37.2730   -27.5560     2.9150 O.co2        1 FMN301  -1.0000
    32 H1         -27.1825   -27.7595     7.6446 H            1 FMN301   0.0000
    33 H2         -28.5148   -34.4956     7.8098 H            1 FMN301   0.0000
    34 H7M1       -29.9955   -37.3559     6.2011 H            1 FMN301   0.0000
    35 H7M2       -28.5802   -37.0254     6.9457 H            1 FMN301   0.0000
    36 H7M3       -29.9934   -36.7088     7.7004 H            1 FMN301   0.0000
    37 H8M1       -31.1401   -35.7235     3.2022 H            1 FMN301   0.0000
    38 H8M2       -30.1235   -36.8234     3.8529 H            1 FMN301   0.0000
    39 H8M3       -31.5540   -36.5066     4.5740 H            1 FMN301   0.0000
    40 H9         -30.4944   -33.5340     3.4647 H            1 FMN301   0.0000
    41 H1'1       -29.9009   -31.5585     2.6466 H            1 FMN301   0.0000
    42 H1'2       -29.3275   -30.0642     2.9707 H            1 FMN301   0.0000
    43 H2'        -31.3991   -29.4722     3.9496 H            1 FMN301   0.0000
    44 H13        -32.2028   -31.3004     4.8319 H            1 FMN301   0.0000
    45 H3'        -31.4344   -30.6553     1.3238 H            1 FMN301   0.0000
    46 H15        -31.4190   -28.2373     0.7150 H            1 FMN301   0.0000
    47 H4'        -33.6401   -30.4600     1.7804 H            1 FMN301   0.0000
    48 H17        -33.1778   -28.0893     0.3893 H            1 FMN301   0.0000
    49 H5'1       -33.2032   -27.7504     2.7138 H            1 FMN301   0.0000
    50 H5'2       -33.5902   -29.0091     3.6795 H            1 FMN301   0.0000
@<TRIPOS>BOND
     1    1    2       1
     2    1   18       2
     3    2    3       2
     4    2    4       1
     5    4    5       1
     6    5    6       2
     7    5    7       1
     8    7    8       2
     9    7   18       1
    10    8    9       1
    11    9   10      ar
    12    9   16      ar
    13   10   11      ar
    14   11   12       1
    15   11   13      ar
    16   13   14       1
    17   13   15      ar
    18   15   16      ar
    19   16   17       1
    20   17   18       1
    21   17   19       1
    22   19   20       1
    23   20   21       1
    24   20   22       1
    25   22   23       1
    26   22   24       1
    27   24   25       1
    28   24   26       1
    29   26   27       1
    30   27   28       1
    31   28   29      ar
    32   28   30      ar
    33   28   31      ar
    34    4   32       1
    35   10   33       1
    36   12   34       1
    37   12   35       1
    38   12   36       1
    39   14   37       1
    40   14   38       1
    41   14   39       1
    42   15   40       1
    43   19   41       1
    44   19   42       1
    45   20   43       1
    46   21   44       1
    47   22   45       1
    48   23   46       1
    49   24   47       1
    50   25   48       1
    51   26   49       1
    52   26   50       1
@<TRIPOS>SUBSTRUCTURE
     1 FMN301      1 GROUP             4 A     FMN     0 **** FMN A 301
