@<TRIPOS>MOLECULE
3adp_NAI_1_ligand
   71    75     1     0     0
SMALL
NO_CHARGES


@<TRIPOS>ATOM
     1 PA         -30.1140    -0.1030    -4.8920 P.3          1 NAI1001   0.0000
     2 O1A        -30.9690     0.7690    -4.0830 O.co2        1 NAI1001   0.0000
     3 O2A        -30.7730    -1.3690    -5.2430 O.co2        1 NAI1001  -1.0000
     4 O5B        -28.7720    -0.5620    -4.1500 O.3          1 NAI1001   0.0000
     5 C5B        -28.0630     0.3150    -3.2380 C.3          1 NAI1001   0.0000
     6 C4B        -27.5750    -0.4860    -2.0510 C.3          1 NAI1001   0.0000
     7 O4B        -26.8660     0.4660    -1.2230 O.3          1 NAI1001   0.0000
     8 C3B        -28.6780    -1.0450    -1.1110 C.3          1 NAI1001   0.0000
     9 O3B        -28.5500    -2.4730    -0.9760 O.3          1 NAI1001   0.0000
    10 C2B        -28.4470    -0.2550     0.1970 C.3          1 NAI1001   0.0000
    11 O2B        -28.7910    -1.0030     1.3910 O.3          1 NAI1001   0.0000
    12 C1B        -26.9810     0.0550     0.0990 C.3          1 NAI1001   0.0000
    13 N9A        -26.5670     1.1600     0.9600 N.pl3        1 NAI1001   0.0000
    14 C8A        -27.2130     2.3480     1.2450 C.2          1 NAI1001   0.0000
    15 N7A        -26.5230     3.1580     2.0980 N.2          1 NAI1001   0.0000
    16 C5A        -25.3670     2.4140     2.3580 C.ar         1 NAI1001   0.0000
    17 C6A        -24.2060     2.6870     3.1860 C.ar         1 NAI1001   0.0000
    18 N6A        -24.0590     3.8080     3.8980 N.pl3        1 NAI1001   0.0000
    19 N1A        -23.2230     1.7100     3.2120 N.ar         1 NAI1001   0.0000
    20 C2A        -23.3790     0.5420     2.4700 C.ar         1 NAI1001   0.0000
    21 N3A        -24.4000     0.2090     1.6920 N.ar         1 NAI1001   0.0000
    22 C4A        -25.3720     1.1800     1.6670 C.ar         1 NAI1001   0.0000
    23 O3         -29.6940     0.6530    -6.1970 O.3          1 NAI1001   0.0000
    24 PN         -28.8110     0.2250    -7.4730 P.3          1 NAI1001   0.0000
    25 O1N        -29.8370     0.2020    -8.5550 O.co2        1 NAI1001   0.0000
    26 O2N        -28.2560    -1.1140    -7.2460 O.co2        1 NAI1001  -1.0000
    27 O5D        -27.7730     1.3430    -7.9180 O.3          1 NAI1001   0.0000
    28 C5D        -26.5670     1.6000    -7.1740 C.3          1 NAI1001   0.0000
    29 C4D        -25.7580     2.6340    -7.9580 C.3          1 NAI1001   0.0000
    30 O4D        -25.4150     2.0130    -9.2480 O.3          1 NAI1001   0.0000
    31 C3D        -26.4480     3.9640    -8.2890 C.3          1 NAI1001   0.0000
    32 O3D        -25.5450     5.0830    -8.1970 O.3          1 NAI1001   0.0000
    33 C2D        -26.9620     3.7250    -9.7220 C.3          1 NAI1001   0.0000
    34 O2D        -27.1600     4.9920   -10.4010 O.3          1 NAI1001   0.0000
    35 C1D        -25.8540     2.8570   -10.2980 C.3          1 NAI1001   0.0000
    36 N1N        -26.2460     2.0590   -11.5020 N.pl3        1 NAI1001   0.0000
    37 C2N        -27.0770     0.9710   -11.2250 C.2          1 NAI1001   0.0000
    38 C3N        -27.4150     0.1570   -12.3080 C.2          1 NAI1001   0.0000
    39 C7N        -28.3670    -1.0340   -12.1580 C.2          1 NAI1001   0.0000
    40 O7N        -28.3020    -1.9510   -12.9720 O.2          1 NAI1001   0.0000
    41 N7N        -29.2890    -1.0330   -11.1740 N.am         1 NAI1001   0.0000
    42 C4N        -26.8240     0.3740   -13.6290 C.3          1 NAI1001   0.0000
    43 C5N        -25.7160     1.2750   -13.6490 C.2          1 NAI1001   0.0000
    44 C6N        -25.3570     2.1260   -12.6210 C.2          1 NAI1001   0.0000
    45 H5B1       -28.6786     1.0374    -2.9230 H            1 NAI1001   0.0000
    46 H5B2       -27.2814     0.7247    -3.7085 H            1 NAI1001   0.0000
    47 H4B        -26.9623    -1.2181    -2.3487 H            1 NAI1001   0.0000
    48 H3B        -29.5795    -0.8227    -1.4824 H            1 NAI1001   0.0000
    49 H5         -27.9502    -2.6824    -0.2037 H            1 NAI1001   0.0000
    50 H2B        -28.9718     0.5958     0.1717 H            1 NAI1001   0.0000
    51 H7         -27.9891    -1.5076     1.7108 H            1 NAI1001   0.0000
    52 H1B        -26.4289    -0.7609     0.2710 H            1 NAI1001   0.0000
    53 H8A        -28.1039     2.5912     0.8613 H            1 NAI1001   0.0000
    54 H6A1       -23.2377     3.9444     4.4520 H            1 NAI1001   0.0000
    55 H6A2       -24.7702     4.5106     3.8769 H            1 NAI1001   0.0000
    56 H2A        -22.6346    -0.1229     2.5309 H            1 NAI1001   0.0000
    57 H5D1       -26.0395     0.7561    -7.0759 H            1 NAI1001   0.0000
    58 H5D2       -26.7938     1.9585    -6.2685 H            1 NAI1001   0.0000
    59 H4D        -24.9129     2.8260    -7.4591 H            1 NAI1001   0.0000
    60 H3D        -27.2225     4.1044    -7.6722 H            1 NAI1001   0.0000
    61 H17        -26.0349     5.9258    -8.4199 H            1 NAI1001   0.0000
    62 H2D        -27.8203     3.2124    -9.6968 H            1 NAI1001   0.0000
    63 H19        -27.0104     4.8712   -11.3823 H            1 NAI1001   0.0000
    64 H1D        -25.0939     3.4538   -10.5551 H            1 NAI1001   0.0000
    65 H2N        -27.4117     0.7851   -10.3012 H            1 NAI1001   0.0000
    66 H7N1       -29.9125    -1.8082   -11.0722 H            1 NAI1001   0.0000
    67 H7N2       -29.3492    -0.2571   -10.5460 H            1 NAI1001   0.0000
    68 H4N1       -27.5336     0.7403   -14.2309 H            1 NAI1001   0.0000
    69 H4N2       -26.5129    -0.5094   -13.9795 H            1 NAI1001   0.0000
    70 H5N        -25.1533     1.2914   -14.4755 H            1 NAI1001   0.0000
    71 H6N        -24.5582     2.7267   -12.6557 H            1 NAI1001   0.0000
@<TRIPOS>BOND
     1    1    2      ar
     2    1    3      ar
     3    1    4       1
     4    1   23       1
     5    4    5       1
     6    5    6       1
     7    6    7       1
     8    6    8       1
     9    7   12       1
    10    8    9       1
    11    8   10       1
    12   10   11       1
    13   10   12       1
    14   12   13       1
    15   13   14       1
    16   13   22       1
    17   14   15       2
    18   15   16       1
    19   16   17      ar
    20   16   22      ar
    21   17   18       1
    22   17   19      ar
    23   19   20      ar
    24   20   21      ar
    25   21   22      ar
    26   23   24       1
    27   24   25      ar
    28   24   26      ar
    29   24   27       1
    30   27   28       1
    31   28   29       1
    32   29   30       1
    33   29   31       1
    34   30   35       1
    35   31   32       1
    36   31   33       1
    37   33   34       1
    38   33   35       1
    39   35   36       1
    40   36   37       1
    41   36   44       1
    42   37   38       2
    43   38   39       1
    44   38   42       1
    45   39   40       2
    46   39   41      am
    47   42   43       1
    48   43   44       2
    49   44   71       1
    50    5   45       1
    51    5   46       1
    52    6   47       1
    53    8   48       1
    54    9   49       1
    55   10   50       1
    56   11   51       1
    57   12   52       1
    58   14   53       1
    59   18   54       1
    60   18   55       1
    61   20   56       1
    62   43   70       1
    63   28   57       1
    64   28   58       1
    65   29   59       1
    66   31   60       1
    67   32   61       1
    68   33   62       1
    69   34   63       1
    70   35   64       1
    71   37   65       1
    72   41   66       1
    73   41   67       1
    74   42   68       1
    75   42   69       1
@<TRIPOS>SUBSTRUCTURE
     1 NAI1001     1 GROUP             4 A     NAI     0 **** NAI A1001
