@<TRIPOS>MOLECULE
2vp0_TTP_1_ligand
   42    43     1     0     0
SMALL
NO_CHARGES


@<TRIPOS>ATOM
     1 PA          -4.1030    19.4120    11.2410 P.3          1 TTP1210   0.0000
     2 O1A         -5.1960    18.3710    11.0490 O.co2        1 TTP1210   0.0000
     3 O2A         -3.1870    19.0490    12.3620 O.co2        1 TTP1210  -1.0000
     4 O3A         -4.7490    20.8250    11.6190 O.3          1 TTP1210   0.0000
     5 PB          -5.9300    21.5350    10.8190 P.3          1 TTP1210   0.0000
     6 O1B         -5.9110    22.9790    11.2530 O.co2        1 TTP1210   0.0000
     7 O2B         -5.7850    21.4540     9.3280 O.co2        1 TTP1210  -1.0000
     8 O3B         -7.2130    20.7470    11.3950 O.3          1 TTP1210   0.0000
     9 PG          -8.6790    21.3880    11.7120 P.3          1 TTP1210   0.0000
    10 O1G         -9.4590    20.2540    12.3270 O.co2        1 TTP1210   0.0000
    11 O2G         -8.6350    22.5640    12.6390 O.co2        1 TTP1210  -1.0000
    12 O3G         -9.2800    21.8130    10.3920 O.co2        1 TTP1210  -1.0000
    13 O5'         -3.3130    19.7040     9.8810 O.3          1 TTP1210   0.0000
    14 C5'         -2.4730    20.8290     9.6260 C.3          1 TTP1210   0.0000
    15 C4'         -1.5600    20.4640     8.4580 C.3          1 TTP1210   0.0000
    16 O4'         -0.4020    19.8240     8.9820 O.3          1 TTP1210   0.0000
    17 C3'         -2.1890    19.4640     7.5010 C.3          1 TTP1210   0.0000
    18 O3'         -1.8400    19.8570     6.1700 O.3          1 TTP1210   0.0000
    19 C2'         -1.5710    18.1080     7.7950 C.3          1 TTP1210   0.0000
    20 C1'         -0.2450    18.5260     8.3960 C.3          1 TTP1210   0.0000
    21 N1           0.2770    17.6760     9.4410 N.pl3        1 TTP1210   0.0000
    22 C2           1.3420    16.8170     9.0790 C.2          1 TTP1210   0.0000
    23 O2           1.7470    16.7870     7.8820 O.2          1 TTP1210   0.0000
    24 N3           1.9080    16.0380    10.0080 N.pl3        1 TTP1210   0.0000
    25 C4           1.4970    16.0640    11.2870 C.2          1 TTP1210   0.0000
    26 O4           2.0470    15.3220    12.1310 O.2          1 TTP1210   0.0000
    27 C5           0.3770    16.9530    11.6820 C.2          1 TTP1210   0.0000
    28 C5M         -0.1250    16.9840    13.1070 C.3          1 TTP1210   0.0000
    29 C6          -0.1920    17.7490    10.7000 C.2          1 TTP1210   0.0000
    30 H5'1        -1.9247    21.0364    10.4362 H            1 TTP1210   0.0000
    31 H5'2        -3.0304    21.6244     9.3881 H            1 TTP1210   0.0000
    32 H4'         -1.2963    21.2908     7.9611 H            1 TTP1210   0.0000
    33 H3'         -3.1820    19.4361     7.6160 H            1 TTP1210   0.0000
    34 H5          -2.5352    20.4813     5.8137 H            1 TTP1210   0.0000
    35 H2'1        -1.4443    17.5723     6.9601 H            1 TTP1210   0.0000
    36 H2'2        -2.1219    17.5856     8.4459 H            1 TTP1210   0.0000
    37 H1'          0.4333    18.5857     7.6637 H            1 TTP1210   0.0000
    38 H9           2.6521    15.4239     9.7451 H            1 TTP1210   0.0000
    39 H5M1        -0.8779    17.6380    13.1810 H            1 TTP1210   0.0000
    40 H5M2        -0.4474    16.0737    13.3667 H            1 TTP1210   0.0000
    41 H5M3         0.6181    17.2608    13.7162 H            1 TTP1210   0.0000
    42 H13         -0.9425    18.3704    10.9248 H            1 TTP1210   0.0000
@<TRIPOS>BOND
     1    1    2      ar
     2    1    3      ar
     3    1    4       1
     4    1   13       1
     5    4    5       1
     6    5    6      ar
     7    5    7      ar
     8    5    8       1
     9    8    9       1
    10    9   10      ar
    11    9   11      ar
    12    9   12      ar
    13   13   14       1
    14   14   15       1
    15   15   16       1
    16   15   17       1
    17   16   20       1
    18   17   18       1
    19   17   19       1
    20   19   20       1
    21   20   21       1
    22   21   22       1
    23   21   29       1
    24   22   23       2
    25   22   24       1
    26   24   25       1
    27   25   26       2
    28   25   27       1
    29   27   28       1
    30   27   29       2
    31   29   42       1
    32   28   41       1
    33   28   40       1
    34   28   39       1
    35   14   30       1
    36   14   31       1
    37   15   32       1
    38   17   33       1
    39   18   34       1
    40   19   35       1
    41   19   36       1
    42   20   37       1
    43   24   38       1
@<TRIPOS>SUBSTRUCTURE
     1 TTP1210     1 GROUP             4 A     TTP     0 **** TTP A1210
