@<TRIPOS>MOLECULE
1wzn_SAH_1_ligand
   46    48     1     0     0
SMALL
NO_CHARGES


@<TRIPOS>ATOM
     1 N           16.3670    56.2580    50.8250 N.4          1 SAH1001   1.0000
     2 CA          16.9580    55.0170    51.4860 C.3          1 SAH1001   0.0000
     3 CB          18.4060    54.7300    51.1970 C.3          1 SAH1001   0.0000
     4 CG          19.5000    55.7090    51.5910 C.3          1 SAH1001   0.0000
     5 SD          21.0810    54.9850    50.9600 S.3          1 SAH1001   0.0000
     6 C           16.6950    55.1840    53.0500 C.2          1 SAH1001   0.0000
     7 O           16.1080    56.1960    53.4770 O.co2        1 SAH1001   0.0000
     8 OXT         17.1130    54.2120    53.7950 O.co2        1 SAH1001  -1.0000
     9 C5'         21.4780    55.9610    49.5610 C.3          1 SAH1001   0.0000
    10 C4'         20.8750    55.3230    48.2160 C.3          1 SAH1001   0.0000
    11 O4'         21.3310    56.2300    47.2060 O.3          1 SAH1001   0.0000
    12 C3'         21.4420    53.9840    47.8040 C.3          1 SAH1001   0.0000
    13 O3'         20.4100    52.9980    47.7510 O.3          1 SAH1001   0.0000
    14 C2'         22.1280    54.2990    46.4110 C.3          1 SAH1001   0.0000
    15 O2'         22.0870    53.1900    45.5220 O.3          1 SAH1001   0.0000
    16 C1'         21.3430    55.5090    45.9370 C.3          1 SAH1001   0.0000
    17 N9          21.9030    56.2970    45.0050 N.pl3        1 SAH1001   0.0000
    18 C8          23.0860    57.0230    44.9670 C.2          1 SAH1001   0.0000
    19 N7          23.2960    57.6850    43.8770 N.2          1 SAH1001   0.0000
    20 C5          22.1590    57.4000    43.0710 C.ar         1 SAH1001   0.0000
    21 C6          21.8020    57.8390    41.7520 C.ar         1 SAH1001   0.0000
    22 N6          22.5580    58.6590    41.0090 N.pl3        1 SAH1001   0.0000
    23 N1          20.5990    57.3500    41.2860 N.ar         1 SAH1001   0.0000
    24 C2          19.8010    56.5130    42.0100 C.ar         1 SAH1001   0.0000
    25 N3          20.1110    56.0720    43.2800 N.ar         1 SAH1001   0.0000
    26 C4          21.2980    56.5520    43.7430 C.ar         1 SAH1001   0.0000
    27 H1          15.3915    56.1143    50.6582 H            1 SAH1001   0.0000
    28 H2          16.4895    57.0468    51.4273 H            1 SAH1001   0.0000
    29 HA          16.4273    54.2288    51.1744 H            1 SAH1001   0.0000
    30 HB1         18.4781    54.6087    50.2070 H            1 SAH1001   0.0000
    31 HB2         18.6202    53.8672    51.6550 H            1 SAH1001   0.0000
    32 HG1         19.5357    55.8087    52.5854 H            1 SAH1001   0.0000
    33 HG2         19.3349    56.6019    51.1721 H            1 SAH1001   0.0000
    34 H5'1        22.4727    56.0200    49.4763 H            1 SAH1001   0.0000
    35 H5'2        21.0990    56.8780    49.6852 H            1 SAH1001   0.0000
    36 H4'         19.8759    55.2950    48.2486 H            1 SAH1001   0.0000
    37 H3'         22.1395    53.7009    48.4623 H            1 SAH1001   0.0000
    38 H12         19.7174    53.2759    47.0854 H            1 SAH1001   0.0000
    39 H2'         23.0801    54.5633    46.5647 H            1 SAH1001   0.0000
    40 H14         21.2510    53.2321    44.9749 H            1 SAH1001   0.0000
    41 H1'         20.4157    55.2473    45.6693 H            1 SAH1001   0.0000
    42 H16         23.7314    57.0330    45.7308 H            1 SAH1001   0.0000
    43 H17         22.2537    58.9289    40.0955 H            1 SAH1001   0.0000
    44 H18         23.4264    59.0009    41.3681 H            1 SAH1001   0.0000
    45 H19         18.9447    56.2022    41.5976 H            1 SAH1001   0.0000
    46 H20         16.8325    56.4266    49.9562 H            1 SAH1001   0.0000
@<TRIPOS>BOND
     1    1    2       1
     2    2    3       1
     3    2    6       1
     4    3    4       1
     5    4    5       1
     6    5    9       1
     7    6    7      ar
     8    6    8      ar
     9    9   10       1
    10   10   11       1
    11   10   12       1
    12   11   16       1
    13   12   13       1
    14   12   14       1
    15   14   15       1
    16   14   16       1
    17   16   17       1
    18   17   18       1
    19   17   26       1
    20   18   19       2
    21   19   20       1
    22   20   21      ar
    23   20   26      ar
    24   21   22       1
    25   21   23      ar
    26   23   24      ar
    27   24   25      ar
    28   25   26      ar
    29    1   27       1
    30    1   28       1
    31    2   29       1
    32    3   30       1
    33    3   31       1
    34    4   32       1
    35    4   33       1
    36    1   46       1
    37    9   34       1
    38    9   35       1
    39   10   36       1
    40   12   37       1
    41   13   38       1
    42   14   39       1
    43   15   40       1
    44   16   41       1
    45   18   42       1
    46   22   43       1
    47   22   44       1
    48   24   45       1
@<TRIPOS>SUBSTRUCTURE
     1 SAH1001     1 GROUP             4 A     SAH     0 **** SAH A1001
