@<TRIPOS>MOLECULE
./coach420/1ixn/ligand.pdb
 22 20 0 0 0
SMALL
GASTEIGER

@<TRIPOS>ATOM
      1  C1        -1.0450  -16.5700   -4.1090 C.3   2001  DXP2001     0.0751
      2  C2        -0.3680  -15.7620   -5.1400 C.2   2001  DXP2001     0.1838
      3  C3         0.0470  -14.3510   -4.8340 C.3   2001  DXP2001     0.2412
      4  C4        -0.9940  -13.2450   -5.0800 C.3   2001  DXP2001     0.2193
      5  C5        -0.5040  -11.9740   -4.3970 C.3   2001  DXP2001     0.1896
      6  O2        -0.1430  -16.2760   -6.2350 O.2   2001  DXP2001    -0.2933
      7  O3         1.1870  -14.0590   -5.6190 O.3   2001  DXP2001    -0.2123
      8  O4        -1.0710  -12.9860   -6.4850 O.3   2001  DXP2001    -0.2172
      9  O5        -1.3830  -10.8530   -4.6170 O.3   2001  DXP2001    -0.2674
     10  P         -0.8600   -9.5970   -3.9850 P.3   2001  DXP2001     0.5327
     11  O2P       -0.5870   -9.7580   -2.5160 O.3   2001  DXP2001    -0.1145
     12  O1P       -1.8290   -8.4750   -4.1800 O.3   2001  DXP2001    -0.1145
     13  O3P        0.3280   -9.2610   -4.5290 O.2   2001  DXP2001    -0.2224
     14  C1         3.3070  -16.3880   -5.7570 C.3   1001  G3P1001     0.0382
     15  C2         3.9990  -15.1230   -5.3580 C.3   1001  G3P1001     0.1821
     16  O2         3.7390  -14.1360   -6.3890 O.3   1001  G3P1001    -0.2204
     17  C3         3.3980  -14.8360   -3.9680 C.3   1001  G3P1001     0.1864
     18  O1P        3.9960  -13.6680   -3.5010 O.3   1001  G3P1001    -0.2675
     19  O4P        5.1370  -13.6090   -1.5880 O.2   1001  G3P1001    -0.2224
     20  O2P        2.9430  -14.2010   -1.1380 O.3   1001  G3P1001    -0.1145
     21  O3P        3.5980  -11.8640   -1.9330 O.3   1001  G3P1001    -0.1145
     22  P          3.8430  -13.3690   -2.0120 P.3   1001  G3P1001     0.5327
@<TRIPOS>BOND
     1     1     2    1
     2     2     6    2
     3     2     3    1
     4     3     7    1
     5     3     4    1
     6     4     8    1
     7     4     5    1
     8     5     9    1
     9     9    10    1
    10    10    13    2
    11    10    12    1
    12    10    11    1
    13    14    15    1
    14    15    16    1
    15    15    17    1
    16    17    18    1
    17    18    22    1
    18    19    22    2
    19    20    22    1
    20    21    22    1
