@<TRIPOS>MOLECULE
3g5i_DNB_2_ligand
   33    34     1     0     0
SMALL
NO_CHARGES


@<TRIPOS>ATOM
     1 O2'         44.4350   -15.7650    67.8480 O.3          1 DNB502   0.0000
     2 C2'         45.8120   -15.5210    68.2900 C.3          1 DNB502   0.0000
     3 C3'         46.0620   -14.0120    68.3500 C.3          1 DNB502   0.0000
     4 O3'         45.0020   -13.3180    67.6770 O.3          1 DNB502   0.0000
     5 C1'         46.8480   -16.0690    67.2990 C.3          1 DNB502   0.0000
     6 N4'         47.4980   -14.8750    66.7850 N.4          1 DNB502   1.0000
     7 C4'         47.3950   -13.7150    67.6510 C.3          1 DNB502   0.0000
     8 C5'         48.6210   -13.5680    68.6030 C.3          1 DNB502   0.0000
     9 O5'         49.8680   -13.6880    67.8710 O.3          1 DNB502   0.0000
    10 C1          47.9710   -16.8570    67.8680 C.ar         1 DNB502   0.0000
    11 C6          48.0200   -17.2670    69.2030 C.ar         1 DNB502   0.0000
    12 C5          49.1200   -18.0040    69.6840 C.ar         1 DNB502   0.0000
    13 C4          50.1740   -18.3140    68.8210 C.ar         1 DNB502   0.0000
    14 C3          50.1230   -17.8870    67.4830 C.ar         1 DNB502   0.0000
    15 N3          51.1490   -18.1650    66.6410 N.pl3        1 DNB502   0.0000
    16 C2          49.0350   -17.1700    67.0040 C.ar         1 DNB502   0.0000
    17 H2'         43.9435   -16.2745    68.5543 H            1 DNB502   0.0000
    18 H2          45.9567   -15.9262    69.1927 H            1 DNB502   0.0000
    19 H3'         46.1076   -13.7151    69.3038 H            1 DNB502   0.0000
    20 H4          44.5449   -12.7035    68.3200 H            1 DNB502   0.0000
    21 H1'         46.3997   -16.5735    66.5611 H            1 DNB502   0.0000
    22 H4'1        47.0811   -14.6463    65.9053 H            1 DNB502   0.0000
    23 H4'         47.3036   -12.8894    67.0941 H            1 DNB502   0.0000
    24 H5'1        48.5811   -14.2841    69.2998 H            1 DNB502   0.0000
    25 H5'2        48.5863   -12.6713    69.0442 H            1 DNB502   0.0000
    26 H5'         49.9161   -12.9718    67.1747 H            1 DNB502   0.0000
    27 H11         47.2689   -17.0356    69.8213 H            1 DNB502   0.0000
    28 H12         49.1463   -18.3036    70.6377 H            1 DNB502   0.0000
    29 H13         50.9595   -18.8362    69.1531 H            1 DNB502   0.0000
    30 H14         51.1113   -17.8605    65.6892 H            1 DNB502   0.0000
    31 H15         51.9433   -18.6745    66.9719 H            1 DNB502   0.0000
    32 H16         49.0082   -16.8773    66.0482 H            1 DNB502   0.0000
    33 H4'2        48.4676   -15.0800    66.6511 H            1 DNB502   0.0000
@<TRIPOS>BOND
     1    1    2       1
     2    2    3       1
     3    2    5       1
     4    3    4       1
     5    3    7       1
     6    5    6       1
     7    5   10       1
     8    6    7       1
     9    7    8       1
    10    8    9       1
    11   10   11      ar
    12   10   16      ar
    13   11   12      ar
    14   12   13      ar
    15   13   14      ar
    16   14   15       1
    17   14   16      ar
    18    1   17       1
    19    2   18       1
    20    3   19       1
    21    4   20       1
    22    5   21       1
    23    6   22       1
    24    7   23       1
    25    8   24       1
    26    8   25       1
    27    9   26       1
    28   11   27       1
    29   12   28       1
    30   13   29       1
    31   15   30       1
    32   15   31       1
    33   16   32       1
    34    6   33       1
@<TRIPOS>SUBSTRUCTURE
     1 DNB502      1 GROUP             4 B     DNB     0 **** DNB B 502
