@<TRIPOS>MOLECULE
1wwz_ACO_2_ligand
   85    87     1     0     0
SMALL
NO_CHARGES


@<TRIPOS>ATOM
     1 N1A         26.6090    10.1410    23.0940 N.ar         1 ACO1002   0.0000
     2 C2A         26.7070    10.2640    21.7770 C.ar         1 ACO1002   0.0000
     3 N3A         27.5060    11.1300    21.1410 N.ar         1 ACO1002   0.0000
     4 C4A         28.2340    11.9630    21.9760 C.ar         1 ACO1002   0.0000
     5 C5A         28.2210    11.9090    23.3460 C.ar         1 ACO1002   0.0000
     6 C6A         27.3220    10.9130    23.9400 C.ar         1 ACO1002   0.0000
     7 N6A         27.1860    10.7450    25.2560 N.pl3        1 ACO1002   0.0000
     8 N7A         29.0910    12.8980    23.8610 N.2          1 ACO1002   0.0000
     9 C8A         29.5770    13.4820    22.7990 C.2          1 ACO1002   0.0000
    10 N9A         29.1220    12.9820    21.5970 N.pl3        1 ACO1002   0.0000
    11 C1B         29.3530    13.3280    20.2160 C.3          1 ACO1002   0.0000
    12 C2B         28.0330    13.6430    19.5770 C.3          1 ACO1002   0.0000
    13 O2B         28.1930    13.6810    18.1640 O.3          1 ACO1002   0.0000
    14 C3B         27.7050    14.9910    20.2640 C.3          1 ACO1002   0.0000
    15 O3B         26.4730    15.2880    19.5750 O.3          1 ACO1002   0.0000
    16 P3B         25.6140    16.5990    19.4830 P.3          1 ACO1002   0.0000
    17 O7A         25.1770    16.9100    20.8670 O.co2        1 ACO1002   0.0000
    18 O8A         24.5160    16.2260    18.5580 O.co2        1 ACO1002  -1.0000
    19 O9A         26.5180    17.5280    18.9270 O.co2        1 ACO1002  -1.0000
    20 C4B         29.0370    15.7470    19.9160 C.3          1 ACO1002   0.0000
    21 O4B         29.9620    14.5660    19.9180 O.3          1 ACO1002   0.0000
    22 C5B         29.8680    16.5850    20.9400 C.3          1 ACO1002   0.0000
    23 O5B         29.3300    17.7600    21.5390 O.3          1 ACO1002   0.0000
    24 P1A         29.9580    18.4340    22.9000 P.3          1 ACO1002   0.0000
    25 O1A         29.1190    18.0240    24.0310 O.co2        1 ACO1002   0.0000
    26 O2A         30.0670    19.9240    22.6090 O.co2        1 ACO1002  -1.0000
    27 O3A         31.4010    17.6340    23.1640 O.3          1 ACO1002   0.0000
    28 P2A         32.4770    17.7740    24.3560 P.3          1 ACO1002   0.0000
    29 O4A         32.5310    16.4110    24.8840 O.co2        1 ACO1002   0.0000
    30 O5A         32.0570    18.8220    25.3180 O.co2        1 ACO1002  -1.0000
    31 O6A         33.8610    18.1740    23.7560 O.3          1 ACO1002   0.0000
    32 CBP         36.0310    17.2100    22.9990 C.3          1 ACO1002   0.0000
    33 CCP         34.5750    17.4110    22.6950 C.3          1 ACO1002   0.0000
    34 CDP         36.6270    16.5090    21.7270 C.3          1 ACO1002   0.0000
    35 CEP         36.7060    18.5800    23.2900 C.3          1 ACO1002   0.0000
    36 CAP         36.1200    16.2860    24.2720 C.3          1 ACO1002   0.0000
    37 OAP         35.5440    15.0220    23.9720 O.3          1 ACO1002   0.0000
    38 C9P         37.5420    16.0130    24.7890 C.2          1 ACO1002   0.0000
    39 O9P         38.0360    16.7040    25.6650 O.2          1 ACO1002   0.0000
    40 N8P         38.2250    14.9700    24.2160 N.am         1 ACO1002   0.0000
    41 C7P         39.6070    14.5850    24.5990 C.3          1 ACO1002   0.0000
    42 C6P         40.6730    15.5930    24.1290 C.3          1 ACO1002   0.0000
    43 C5P         40.8030    15.6080    22.6330 C.2          1 ACO1002   0.0000
    44 O5P         40.9230    14.5400    21.9930 O.2          1 ACO1002   0.0000
    45 N4P         40.7980    16.7660    21.9920 N.am         1 ACO1002   0.0000
    46 C3P         40.9160    17.1400    20.5730 C.3          1 ACO1002   0.0000
    47 C2P         42.4300    17.1410    20.3170 C.3          1 ACO1002   0.0000
    48 S1P         42.7030    17.6180    18.5320 S.3          1 ACO1002   0.0000
    49 C           43.0840    19.0830    18.7010 C.2          1 ACO1002   0.0000
    50 O           43.1860    19.7900    19.8080 O.2          1 ACO1002   0.0000
    51 CH3         43.4800    20.1960    17.5530 C.3          1 ACO1002   0.0000
    52 H2A         26.1394     9.6626    21.2147 H            1 ACO1002   0.0000
    53 H6A1        27.7110    11.3133    25.8895 H            1 ACO1002   0.0000
    54 H6A2        26.5590    10.0507    25.6093 H            1 ACO1002   0.0000
    55 H8A         30.2311    14.2364    22.8533 H            1 ACO1002   0.0000
    56 H1B         29.8117    12.5812    19.7345 H            1 ACO1002   0.0000
    57 H2B         27.3543    12.9532    19.8290 H            1 ACO1002   0.0000
    58 H7          28.0335    12.7691    17.7858 H            1 ACO1002   0.0000
    59 H3B         27.5728    14.8911    21.2502 H            1 ACO1002   0.0000
    60 H4B         28.9941    16.1874    19.0192 H            1 ACO1002   0.0000
    61 H5B1        30.7029    16.8649    20.4662 H            1 ACO1002   0.0000
    62 H5B2        30.1018    15.9659    21.6897 H            1 ACO1002   0.0000
    63 HCP1        34.4952    17.9120    21.8333 H            1 ACO1002   0.0000
    64 HCP2        34.1421    16.5145    22.6006 H            1 ACO1002   0.0000
    65 HDP1        37.6038    16.3445    21.8640 H            1 ACO1002   0.0000
    66 HDP2        36.1600    15.6376    21.5770 H            1 ACO1002   0.0000
    67 HDP3        36.4968    17.0985    20.9298 H            1 ACO1002   0.0000
    68 HEP1        37.6751    18.4380    23.4915 H            1 ACO1002   0.0000
    69 HEP2        36.6153    19.1729    22.4899 H            1 ACO1002   0.0000
    70 HEP3        36.2617    19.0103    24.0758 H            1 ACO1002   0.0000
    71 HAP         35.5910    16.7086    25.0079 H            1 ACO1002   0.0000
    72 H21         35.9931    14.3134    24.5162 H            1 ACO1002   0.0000
    73 H8P         37.7673    14.4405    23.5018 H            1 ACO1002   0.0000
    74 H7P1        39.8121    13.6941    24.1938 H            1 ACO1002   0.0000
    75 H7P2        39.6527    14.5163    25.5956 H            1 ACO1002   0.0000
    76 H6P1        41.5547    15.3418    24.5283 H            1 ACO1002   0.0000
    77 H6P2        40.4142    16.5072    24.4409 H            1 ACO1002   0.0000
    78 H4P         40.6916    17.5529    22.5998 H            1 ACO1002   0.0000
    79 H3P1        40.5269    18.0467    20.4104 H            1 ACO1002   0.0000
    80 H3P2        40.4567    16.4706    19.9891 H            1 ACO1002   0.0000
    81 H2P1        42.8049    16.2297    20.4873 H            1 ACO1002   0.0000
    82 H2P2        42.8768    17.8030    20.9187 H            1 ACO1002   0.0000
    83 HH31        43.6795    21.0718    17.9926 H            1 ACO1002   0.0000
    84 HH32        44.2862    19.8840    17.0503 H            1 ACO1002   0.0000
    85 HH33        42.7147    20.3079    16.9192 H            1 ACO1002   0.0000
@<TRIPOS>BOND
     1    1    2      ar
     2    1    6      ar
     3    2    3      ar
     4    3    4      ar
     5    4    5      ar
     6    4   10       1
     7    5    6      ar
     8    5    8       1
     9    6    7       1
    10    8    9       2
    11    9   10       1
    12   10   11       1
    13   11   12       1
    14   11   21       1
    15   12   13       1
    16   12   14       1
    17   14   15       1
    18   14   20       1
    19   15   16       1
    20   16   17      ar
    21   16   18      ar
    22   16   19      ar
    23   20   21       1
    24   20   22       1
    25   22   23       1
    26   23   24       1
    27   24   25      ar
    28   24   26      ar
    29   24   27       1
    30   27   28       1
    31   28   29      ar
    32   28   30      ar
    33   28   31       1
    34   31   33       1
    35   32   33       1
    36   32   34       1
    37   32   35       1
    38   32   36       1
    39   36   37       1
    40   36   38       1
    41   38   39       2
    42   38   40      am
    43   40   41       1
    44   41   42       1
    45   42   43       1
    46   43   44       2
    47   43   45      am
    48   45   46       1
    49   46   47       1
    50   47   48       1
    51   48   49       1
    52   49   50       2
    53   49   51       1
    54    2   52       1
    55    7   53       1
    56    7   54       1
    57    9   55       1
    58   11   56       1
    59   12   57       1
    60   13   58       1
    61   14   59       1
    62   51   85       1
    63   51   84       1
    64   20   60       1
    65   22   61       1
    66   22   62       1
    67   51   83       1
    68   47   82       1
    69   33   63       1
    70   33   64       1
    71   34   65       1
    72   34   66       1
    73   34   67       1
    74   35   68       1
    75   35   69       1
    76   35   70       1
    77   36   71       1
    78   37   72       1
    79   40   73       1
    80   41   74       1
    81   41   75       1
    82   42   76       1
    83   42   77       1
    84   45   78       1
    85   46   79       1
    86   46   80       1
    87   47   81       1
@<TRIPOS>SUBSTRUCTURE
     1 ACO1002     1 GROUP             4 B     ACO     0 **** ACO B1002
