@<TRIPOS>MOLECULE
3is2_FAD_2_ligand
   84    89     1     0     0
SMALL
NO_CHARGES


@<TRIPOS>ATOM
     1 PA          21.5140   -30.9030    37.6070 P.3          1 FAD201   0.0000
     2 O1A         20.4380   -31.8180    38.0870 O.co2        1 FAD201   0.0000
     3 O2A         22.2280   -30.0650    38.6070 O.co2        1 FAD201  -1.0000
     4 O5B         22.5350   -31.8060    36.7910 O.3          1 FAD201   0.0000
     5 C5B         23.7380   -31.3200    36.1700 C.3          1 FAD201   0.0000
     6 C4B         24.6770   -32.5170    35.9960 C.3          1 FAD201   0.0000
     7 O4B         25.9910   -31.9910    35.7100 O.3          1 FAD201   0.0000
     8 C3B         24.8190   -33.4510    37.2280 C.3          1 FAD201   0.0000
     9 O3B         24.6230   -34.8200    36.9470 O.3          1 FAD201   0.0000
    10 C2B         26.2050   -33.1470    37.7880 C.3          1 FAD201   0.0000
    11 O2B         26.9200   -34.1960    38.3820 O.3          1 FAD201   0.0000
    12 C1B         26.9670   -32.5020    36.6290 C.3          1 FAD201   0.0000
    13 N9A         27.8080   -31.3870    37.0300 N.pl3        1 FAD201   0.0000
    14 C8A         27.4550   -30.2960    37.7770 C.2          1 FAD201   0.0000
    15 N7A         28.4330   -29.4420    37.9840 N.2          1 FAD201   0.0000
    16 C5A         29.5120   -30.0120    37.3240 C.ar         1 FAD201   0.0000
    17 C6A         30.8770   -29.5810    37.1610 C.ar         1 FAD201   0.0000
    18 N6A         31.3230   -28.4370    37.6990 N.pl3        1 FAD201   0.0000
    19 N1A         31.7250   -30.3750    36.4390 N.ar         1 FAD201   0.0000
    20 C2A         31.2390   -31.5350    35.9000 C.ar         1 FAD201   0.0000
    21 N3A         29.9850   -32.0350    35.9890 N.ar         1 FAD201   0.0000
    22 C4A         29.1520   -31.1840    36.7380 C.ar         1 FAD201   0.0000
    23 N1          16.6180   -30.7500    28.7210 N.2          1 FAD201   0.0000
    24 C2          16.5460   -31.8410    27.9130 C.2          1 FAD201   0.0000
    25 O2          17.1850   -32.8910    28.1490 O.2          1 FAD201   0.0000
    26 N3          15.7420   -31.7950    26.7600 N.pl3        1 FAD201   0.0000
    27 C4          14.9700   -30.6920    26.3720 C.2          1 FAD201   0.0000
    28 O4          14.2840   -30.7530    25.3210 O.2          1 FAD201   0.0000
    29 C4X         15.0320   -29.5640    27.2510 C.2          1 FAD201   0.0000
    30 N5          14.2880   -28.3990    26.9440 N.2          1 FAD201   0.0000
    31 C5X         14.3850   -27.3020    27.8140 C.ar         1 FAD201   0.0000
    32 C6          13.6350   -26.1000    27.5290 C.ar         1 FAD201   0.0000
    33 C7          13.6970   -24.9890    28.3630 C.ar         1 FAD201   0.0000
    34 C7M         12.8590   -23.7570    27.9900 C.3          1 FAD201   0.0000
    35 C8          14.5110   -25.0150    29.5340 C.ar         1 FAD201   0.0000
    36 C8M         14.6220   -23.8440    30.4940 C.3          1 FAD201   0.0000
    37 C9          15.2790   -26.2040    29.8240 C.ar         1 FAD201   0.0000
    38 C9A         15.2380   -27.3380    28.9960 C.ar         1 FAD201   0.0000
    39 N10         15.9960   -28.5430    29.2680 N.pl3        1 FAD201   0.0000
    40 C10         15.8780   -29.6380    28.4090 C.2          1 FAD201   0.0000
    41 C1'         16.9180   -28.6470    30.4280 C.3          1 FAD201   0.0000
    42 C2'         16.4890   -29.2760    31.7550 C.3          1 FAD201   0.0000
    43 O2'         15.1490   -28.9060    32.0820 O.3          1 FAD201   0.0000
    44 C3'         17.5220   -28.8340    32.8200 C.3          1 FAD201   0.0000
    45 O3'         17.5880   -27.4030    32.7880 O.3          1 FAD201   0.0000
    46 C4'         18.9500   -29.4300    32.5490 C.3          1 FAD201   0.0000
    47 O4'         18.8900   -30.8400    32.6700 O.3          1 FAD201   0.0000
    48 C5'         20.0380   -28.8910    33.4980 C.3          1 FAD201   0.0000
    49 O5'         19.5140   -28.5770    34.8020 O.3          1 FAD201   0.0000
    50 P           19.3980   -29.6670    35.9610 P.3          1 FAD201   0.0000
    51 O1P         18.5080   -29.0960    36.9820 O.co2        1 FAD201   0.0000
    52 O2P         18.9860   -30.9710    35.3630 O.co2        1 FAD201  -1.0000
    53 O3P         20.8780   -29.8860    36.5460 O.3          1 FAD201   0.0000
    54 H5B1        24.1682   -30.6294    36.7514 H            1 FAD201   0.0000
    55 H5B2        23.5252   -30.9197    35.2787 H            1 FAD201   0.0000
    56 H4B         24.3686   -33.0585    35.2139 H            1 FAD201   0.0000
    57 H3B         24.1410   -33.1732    37.9085 H            1 FAD201   0.0000
    58 H5          23.8562   -35.1650    37.4884 H            1 FAD201   0.0000
    59 H2B         26.0880   -32.4420    38.4874 H            1 FAD201   0.0000
    60 H7          26.4006   -34.5568    39.1566 H            1 FAD201   0.0000
    61 H1B         27.5259   -33.1936    36.1715 H            1 FAD201   0.0000
    62 H8A         26.5313   -30.1598    38.1351 H            1 FAD201   0.0000
    63 H6A1        32.2757   -28.1619    37.5701 H            1 FAD201   0.0000
    64 H6A2        30.7030   -27.8587    38.2293 H            1 FAD201   0.0000
    65 H2A         31.8919   -32.0811    35.3750 H            1 FAD201   0.0000
    66 H13         15.7197   -32.6065    26.1761 H            1 FAD201   0.0000
    67 H14         13.0580   -26.0664    26.7130 H            1 FAD201   0.0000
    68 H7M1        12.9993   -23.0394    28.6722 H            1 FAD201   0.0000
    69 H7M2        13.1408   -23.4219    27.0910 H            1 FAD201   0.0000
    70 H7M3        11.8912   -24.0076    27.9640 H            1 FAD201   0.0000
    71 H8M1        15.2440   -24.0823    31.2399 H            1 FAD201   0.0000
    72 H8M2        14.9763   -23.0459    30.0067 H            1 FAD201   0.0000
    73 H8M3        13.7189   -23.6326    30.8677 H            1 FAD201   0.0000
    74 H21         15.8577   -26.2201    30.6394 H            1 FAD201   0.0000
    75 H1'1        17.2047   -27.7131    30.6414 H            1 FAD201   0.0000
    76 H1'2        17.7068   -29.1738    30.1114 H            1 FAD201   0.0000
    77 H2'         16.5314   -30.2710    31.6641 H            1 FAD201   0.0000
    78 H25         14.8896   -29.3271    32.9511 H            1 FAD201   0.0000
    79 H3'         17.2092   -29.1283    33.7231 H            1 FAD201   0.0000
    80 H27         18.2493   -27.0845    33.4672 H            1 FAD201   0.0000
    81 H4'         19.2118   -29.2055    31.6103 H            1 FAD201   0.0000
    82 H29         18.5922   -31.0830    33.5932 H            1 FAD201   0.0000
    83 H5'1        20.4305   -28.0617    33.1002 H            1 FAD201   0.0000
    84 H5'2        20.7522   -29.5840    33.5960 H            1 FAD201   0.0000
@<TRIPOS>BOND
     1    1    2      ar
     2    1    3      ar
     3    1    4       1
     4    1   53       1
     5    4    5       1
     6    5    6       1
     7    6    7       1
     8    6    8       1
     9    7   12       1
    10    8    9       1
    11    8   10       1
    12   10   11       1
    13   10   12       1
    14   12   13       1
    15   13   14       1
    16   13   22       1
    17   14   15       2
    18   15   16       1
    19   16   17      ar
    20   16   22      ar
    21   17   18       1
    22   17   19      ar
    23   19   20      ar
    24   20   21      ar
    25   21   22      ar
    26   23   24       1
    27   23   40       2
    28   24   25       2
    29   24   26       1
    30   26   27       1
    31   27   28       2
    32   27   29       1
    33   29   30       2
    34   29   40       1
    35   30   31       1
    36   31   32      ar
    37   31   38      ar
    38   32   33      ar
    39   33   34       1
    40   33   35      ar
    41   35   36       1
    42   35   37      ar
    43   37   38      ar
    44   38   39       1
    45   39   40       1
    46   39   41       1
    47   41   42       1
    48   42   43       1
    49   42   44       1
    50   44   45       1
    51   44   46       1
    52   46   47       1
    53   46   48       1
    54   48   49       1
    55   49   50       1
    56   50   51      ar
    57   50   52      ar
    58   50   53       1
    59   48   84       1
    60    5   54       1
    61    5   55       1
    62    6   56       1
    63    8   57       1
    64    9   58       1
    65   10   59       1
    66   11   60       1
    67   12   61       1
    68   14   62       1
    69   18   63       1
    70   18   64       1
    71   20   65       1
    72   26   66       1
    73   32   67       1
    74   34   68       1
    75   34   69       1
    76   34   70       1
    77   36   71       1
    78   36   72       1
    79   36   73       1
    80   37   74       1
    81   41   75       1
    82   41   76       1
    83   42   77       1
    84   43   78       1
    85   44   79       1
    86   45   80       1
    87   46   81       1
    88   47   82       1
    89   48   83       1
@<TRIPOS>SUBSTRUCTURE
     1 FAD201      1 GROUP             4 B     FAD     0 **** FAD B 201
