@<TRIPOS>MOLECULE
./coach420/3kbn/ligand.pdb
 12 9 0 0 0
SMALL
GASTEIGER

@<TRIPOS>ATOM
      1 NI         -7.5470  -12.8510  -44.7210 Ni    392  NI392       0.0000
      2  C2       -11.3820  -15.4420  -46.0260 C.3   401  GLO401      0.0000
      3  C3       -11.9680  -16.8050  -45.6230 C.3   401  GLO401      0.0000
      4  C4       -13.4530  -16.6730  -45.2400 C.3   401  GLO401      0.0000
      5  C5       -14.0970  -18.0380  -44.9230 C.3   401  GLO401      0.0000
      6  C6       -15.5960  -17.6950  -45.1860 C.3   401  GLO401      0.0000
      7  O1        -9.0970  -14.8910  -47.0620 O.3   401  GLO401      0.0000
      8  O2       -11.1100  -14.6860  -44.8790 O.3   401  GLO401      0.0000
      9  O3       -11.4070  -17.5370  -44.4620 O.3   401  GLO401      0.0000
     10  O4       -13.5080  -16.0560  -43.9980 O.3   401  GLO401      0.0000
     11  O5       -13.6230  -18.9450  -45.9390 O.3   401  GLO401      0.0000
     12  O6       -16.5000  -18.3830  -44.3010 O.3   401  GLO401      0.0000
@<TRIPOS>BOND
     1     2     3    1
     2     2     8    1
     3     3     4    1
     4     3     9    1
     5     4     5    1
     6     4    10    1
     7     5    11    1
     8     5     6    1
     9     6    12    1
