@<TRIPOS>MOLECULE
5bsg_NAP_10_ligand
   73    77     1     0     0
SMALL
NO_CHARGES


@<TRIPOS>ATOM
     1 PA          42.1520    30.7110    29.3790 P.3          1 NAP301   0.0000
     2 O1A         43.5830    30.4540    29.5030 O.co2        1 NAP301   0.0000
     3 O2A         41.8210    31.5940    28.2890 O.co2        1 NAP301  -1.0000
     4 O5B         41.3940    29.3420    29.1910 O.3          1 NAP301   0.0000
     5 C5B         39.9880    29.1310    29.1860 C.3          1 NAP301   0.0000
     6 C4B         39.6660    28.0370    28.1980 C.3          1 NAP301   0.0000
     7 O4B         38.2880    27.8960    28.0190 O.3          1 NAP301   0.0000
     8 C3B         40.2270    28.3190    26.8130 C.3          1 NAP301   0.0000
     9 O3B         41.2080    27.3480    26.4990 O.3          1 NAP301   0.0000
    10 C2B         39.0190    28.3610    25.8600 C.3          1 NAP301   0.0000
    11 O2B         39.1660    27.8070    24.5730 O.3          1 NAP301   0.0000
    12 C1B         38.0950    27.4920    26.6560 C.3          1 NAP301   0.0000
    13 N9A         36.6850    27.5290    26.2450 N.pl3        1 NAP301   0.0000
    14 C8A         36.0190    28.5530    25.7080 C.2          1 NAP301   0.0000
    15 N7A         34.7320    28.2220    25.4920 N.2          1 NAP301   0.0000
    16 C5A         34.5670    26.9620    25.9080 C.ar         1 NAP301   0.0000
    17 C6A         33.4460    25.9990    25.9620 C.ar         1 NAP301   0.0000
    18 N6A         32.2360    26.3600    25.5390 N.pl3        1 NAP301   0.0000
    19 N1A         33.6770    24.7880    26.4580 N.ar         1 NAP301   0.0000
    20 C2A         34.8810    24.4480    26.9110 C.ar         1 NAP301   0.0000
    21 N3A         35.9520    25.2440    26.9000 N.ar         1 NAP301   0.0000
    22 C4A         35.8580    26.5020    26.4150 C.ar         1 NAP301   0.0000
    23 O3          41.5820    31.3740    30.7020 O.3          1 NAP301   0.0000
    24 PN          42.2380    31.2280    32.1380 P.3          1 NAP301   0.0000
    25 O1N         43.1740    32.3320    32.3020 O.co2        1 NAP301   0.0000
    26 O2N         42.7850    29.8900    32.2720 O.co2        1 NAP301  -1.0000
    27 O5D         41.0120    31.5100    33.0630 O.3          1 NAP301   0.0000
    28 C5D         40.0190    30.5810    33.3550 C.3          1 NAP301   0.0000
    29 C4D         39.1830    31.0300    34.5170 C.3          1 NAP301   0.0000
    30 O4D         39.9580    31.0620    35.7060 O.3          1 NAP301   0.0000
    31 C3D         38.6500    32.4220    34.2750 C.3          1 NAP301   0.0000
    32 O3D         37.3170    32.4430    34.6660 O.3          1 NAP301   0.0000
    33 C2D         39.4490    33.2840    35.2230 C.3          1 NAP301   0.0000
    34 O2D         38.6900    34.3280    35.7190 O.3          1 NAP301   0.0000
    35 C1D         39.8140    32.3180    36.3440 C.3          1 NAP301   0.0000
    36 N1N         41.0180    32.7980    37.0300 N.ar         1 NAP301   1.0000
    37 C2N         42.1850    32.7620    36.4010 C.ar         1 NAP301   0.0000
    38 C3N         43.3210    33.2720    37.0330 C.ar         1 NAP301   0.0000
    39 C7N         44.6200    33.2090    36.3540 C.2          1 NAP301   0.0000
    40 O7N         45.5750    33.6640    36.9130 O.2          1 NAP301   0.0000
    41 N7N         44.7120    32.6440    35.1640 N.am         1 NAP301   0.0000
    42 C4N         43.2200    33.8030    38.3020 C.ar         1 NAP301   0.0000
    43 C5N         42.0030    33.8460    38.9270 C.ar         1 NAP301   0.0000
    44 C6N         40.9070    33.3170    38.2360 C.ar         1 NAP301   0.0000
    45 P2B         39.9010    28.4340    23.2830 P.3          1 NAP301   0.0000
    46 O1X         39.3100    27.7350    22.1280 O.co2        1 NAP301   0.0000
    47 O2X         39.7470    29.8870    23.2500 O.co2        1 NAP301  -1.0000
    48 O3X         41.2720    28.0360    23.5790 O.co2        1 NAP301  -1.0000
    49 H5B1        39.5222    29.9743    28.9178 H            1 NAP301   0.0000
    50 H5B2        39.6854    28.8591    30.0995 H            1 NAP301   0.0000
    51 H4B         40.0420    27.1731    28.5331 H            1 NAP301   0.0000
    52 H3B         40.6600    29.2204    26.8206 H            1 NAP301   0.0000
    53 H5          41.5787    27.5311    25.5885 H            1 NAP301   0.0000
    54 H2B         38.6560    29.2908    25.7992 H            1 NAP301   0.0000
    55 H1B         38.4135    26.5480    26.5694 H            1 NAP301   0.0000
    56 H8A         36.4206    29.4438    25.4953 H            1 NAP301   0.0000
    57 H6A1        31.4784    25.7083    25.5758 H            1 NAP301   0.0000
    58 H6A2        32.0849    27.2828    25.1845 H            1 NAP301   0.0000
    59 H2A         34.9914    23.5282    27.2874 H            1 NAP301   0.0000
    60 H5D1        40.4469    29.7055    33.5796 H            1 NAP301   0.0000
    61 H5D2        39.4311    30.4689    32.5539 H            1 NAP301   0.0000
    62 H4D         38.4171    30.3984    34.6377 H            1 NAP301   0.0000
    63 H3D         38.7652    32.7065    33.3233 H            1 NAP301   0.0000
    64 H16         36.8012    31.7765    34.1277 H            1 NAP301   0.0000
    65 H2D         40.2730    33.6301    34.7744 H            1 NAP301   0.0000
    66 H18         38.3735    34.8992    34.9617 H            1 NAP301   0.0000
    67 H1D         39.0587    32.2710    36.9977 H            1 NAP301   0.0000
    68 H2N         42.2509    32.3730    35.4821 H            1 NAP301   0.0000
    69 H7N1        45.5960    32.5995    34.6986 H            1 NAP301   0.0000
    70 H7N2        43.8977    32.2606    34.7282 H            1 NAP301   0.0000
    71 H4N         44.0337    34.1556    38.7642 H            1 NAP301   0.0000
    72 H5N         41.9011    34.2396    39.8406 H            1 NAP301   0.0000
    73 H6N         40.0077    33.3335    38.6730 H            1 NAP301   0.0000
@<TRIPOS>BOND
     1    1    2      ar
     2    1    3      ar
     3    1    4       1
     4    1   23       1
     5    4    5       1
     6    5    6       1
     7    6    7       1
     8    6    8       1
     9    7   12       1
    10    8    9       1
    11    8   10       1
    12   10   11       1
    13   10   12       1
    14   11   45       1
    15   12   13       1
    16   13   14       1
    17   13   22       1
    18   14   15       2
    19   15   16       1
    20   16   17      ar
    21   16   22      ar
    22   17   18       1
    23   17   19      ar
    24   19   20      ar
    25   20   21      ar
    26   21   22      ar
    27   23   24       1
    28   24   25      ar
    29   24   26      ar
    30   24   27       1
    31   27   28       1
    32   28   29       1
    33   29   30       1
    34   29   31       1
    35   30   35       1
    36   31   32       1
    37   31   33       1
    38   33   34       1
    39   33   35       1
    40   35   36       1
    41   36   37      ar
    42   36   44      ar
    43   37   38      ar
    44   38   39       1
    45   38   42      ar
    46   39   40       2
    47   39   41      am
    48   42   43      ar
    49   43   44      ar
    50   45   46      ar
    51   45   47      ar
    52   45   48      ar
    53   43   72       1
    54    5   49       1
    55    5   50       1
    56    6   51       1
    57    8   52       1
    58    9   53       1
    59   10   54       1
    60   12   55       1
    61   14   56       1
    62   18   57       1
    63   18   58       1
    64   20   59       1
    65   44   73       1
    66   28   60       1
    67   28   61       1
    68   29   62       1
    69   31   63       1
    70   32   64       1
    71   33   65       1
    72   34   66       1
    73   35   67       1
    74   37   68       1
    75   41   69       1
    76   41   70       1
    77   42   71       1
@<TRIPOS>SUBSTRUCTURE
     1 NAP301      1 GROUP             4 J     NAP     0 **** NAP J 301
