@<TRIPOS>MOLECULE
4tqg_NDP_1_ligand
   73    77     1     0     0
SMALL
NO_CHARGES


@<TRIPOS>ATOM
     1 PA          68.3950    15.9320    10.4690 P.3          1 NDP400   0.0000
     2 O1A         68.2610    16.1260    11.9250 O.co2        1 NDP400   0.0000
     3 O2A         68.7260    14.5300    10.1370 O.co2        1 NDP400  -1.0000
     4 O5B         69.4950    17.0080     9.9770 O.3          1 NDP400   0.0000
     5 C5B         69.1430    18.3390     9.6580 C.3          1 NDP400   0.0000
     6 C4B         70.3380    19.0700     9.0490 C.3          1 NDP400   0.0000
     7 O4B         70.3530    20.4300     9.4520 O.3          1 NDP400   0.0000
     8 C3B         71.6750    18.4730     9.4630 C.3          1 NDP400   0.0000
     9 O3B         72.4400    18.3180     8.2840 O.3          1 NDP400   0.0000
    10 C2B         72.3450    19.5320    10.3140 C.3          1 NDP400   0.0000
    11 O2B         73.7230    19.5300    10.0470 O.3          1 NDP400   0.0000
    12 C1B         71.6780    20.7960     9.7860 C.3          1 NDP400   0.0000
    13 N9A         71.7200    21.9500    10.7120 N.pl3        1 NDP400   0.0000
    14 C8A         71.1090    22.0780    11.9360 C.2          1 NDP400   0.0000
    15 N7A         71.4110    23.2990    12.4280 N.2          1 NDP400   0.0000
    16 C5A         72.1860    23.9600    11.5410 C.ar         1 NDP400   0.0000
    17 C6A         72.7680    25.2220    11.5510 C.ar         1 NDP400   0.0000
    18 N6A         72.5920    26.0570    12.5820 N.pl3        1 NDP400   0.0000
    19 N1A         73.5310    25.6120    10.4640 N.ar         1 NDP400   0.0000
    20 C2A         73.7230    24.7730     9.3870 C.ar         1 NDP400   0.0000
    21 N3A         73.1390    23.5200     9.3880 N.ar         1 NDP400   0.0000
    22 C4A         72.3920    23.1210    10.4540 C.ar         1 NDP400   0.0000
    23 O3          67.0370    16.3860     9.7680 O.3          1 NDP400   0.0000
    24 PN          66.1270    15.6720     8.6610 P.3          1 NDP400   0.0000
    25 O1N         65.4300    14.5210     9.2750 O.co2        1 NDP400   0.0000
    26 O2N         66.9860    15.4870     7.4620 O.co2        1 NDP400  -1.0000
    27 O5D         65.0450    16.8450     8.4190 O.3          1 NDP400   0.0000
    28 C5D         65.3980    18.0490     7.7670 C.3          1 NDP400   0.0000
    29 C4D         64.1440    18.8620     7.4390 C.3          1 NDP400   0.0000
    30 O4D         63.0150    18.0060     7.3380 O.3          1 NDP400   0.0000
    31 C3D         63.8210    19.8730     8.5330 C.3          1 NDP400   0.0000
    32 O3D         63.5620    21.1330     7.9620 O.3          1 NDP400   0.0000
    33 C2D         62.5340    19.3780     9.1530 C.3          1 NDP400   0.0000
    34 O2D         61.7190    20.4720     9.5070 O.3          1 NDP400   0.0000
    35 C1D         61.9060    18.5580     8.0360 C.3          1 NDP400   0.0000
    36 N1N         61.0150    17.5290     8.6110 N.ar         1 NDP400   1.0000
    37 C2N         61.5150    16.3200     9.0160 C.ar         1 NDP400   0.0000
    38 C3N         60.6680    15.3610     9.5710 C.ar         1 NDP400   0.0000
    39 C7N         61.2040    14.0490    10.0660 C.2          1 NDP400   0.0000
    40 O7N         60.3157    13.0163    10.4480 O.2          1 NDP400   0.0000
    41 N7N         62.5276    13.9098    10.1446 N.am         1 NDP400   0.0000
    42 C4N         59.3120    15.6300     9.7040 C.ar         1 NDP400   0.0000
    43 C5N         58.8140    16.8610     9.2900 C.ar         1 NDP400   0.0000
    44 C6N         59.6790    17.8030     8.7410 C.ar         1 NDP400   0.0000
    45 P2B         74.8000    19.9110    11.1820 P.3          1 NDP400   0.0000
    46 O1X         74.3320    19.5020    12.5560 O.co2        1 NDP400   0.0000
    47 O2X         74.9930    21.4170    11.2010 O.co2        1 NDP400  -1.0000
    48 O3X         76.0810    19.2100    10.8360 O.co2        1 NDP400  -1.0000
    49 H5B1        68.8551    18.8129    10.4902 H            1 NDP400   0.0000
    50 H5B2        68.3896    18.3328     9.0004 H            1 NDP400   0.0000
    51 H4B         70.2640    19.0313     8.0525 H            1 NDP400   0.0000
    52 H3B         71.5646    17.6097     9.9555 H            1 NDP400   0.0000
    53 H5          73.3309    17.9263     8.5138 H            1 NDP400   0.0000
    54 H2B         72.1580    19.3956    11.2868 H            1 NDP400   0.0000
    55 H1B         72.1456    21.0612     8.9428 H            1 NDP400   0.0000
    56 H8A         70.5404    21.3881    12.3840 H            1 NDP400   0.0000
    57 H6A1        73.0187    26.9613    12.5715 H            1 NDP400   0.0000
    58 H6A2        72.0338    25.7766    13.3629 H            1 NDP400   0.0000
    59 H2A         74.2804    25.0685     8.6111 H            1 NDP400   0.0000
    60 H5D1        65.8837    17.8351     6.9194 H            1 NDP400   0.0000
    61 H5D2        65.9924    18.5863     8.3653 H            1 NDP400   0.0000
    62 H4D         64.2762    19.3417     6.5716 H            1 NDP400   0.0000
    63 H3D         64.5552    19.9240     9.2100 H            1 NDP400   0.0000
    64 H16         62.7834    21.0627     7.3385 H            1 NDP400   0.0000
    65 H2D         62.7227    18.8045     9.9502 H            1 NDP400   0.0000
    66 H18         60.8504    20.4135     9.0150 H            1 NDP400   0.0000
    67 H1D         61.3852    19.1563     7.4271 H            1 NDP400   0.0000
    68 H2N         62.4903    16.1243     8.9135 H            1 NDP400   0.0000
    69 H7N1        62.9211    13.0596    10.4944 H            1 NDP400   0.0000
    70 H7N2        63.1270    14.6556     9.8538 H            1 NDP400   0.0000
    71 H4N         58.6982    14.9438    10.0945 H            1 NDP400   0.0000
    72 H5N         57.8404    17.0679     9.3862 H            1 NDP400   0.0000
    73 H6N         59.3224    18.6871     8.4390 H            1 NDP400   0.0000
@<TRIPOS>BOND
     1    1    2      ar
     2    1    3      ar
     3    1    4       1
     4    1   23       1
     5    4    5       1
     6    5    6       1
     7    6    7       1
     8    6    8       1
     9    7   12       1
    10    8    9       1
    11    8   10       1
    12   10   11       1
    13   10   12       1
    14   11   45       1
    15   12   13       1
    16   13   14       1
    17   13   22       1
    18   14   15       2
    19   15   16       1
    20   16   17      ar
    21   16   22      ar
    22   17   18       1
    23   17   19      ar
    24   19   20      ar
    25   20   21      ar
    26   21   22      ar
    27   23   24       1
    28   24   25      ar
    29   24   26      ar
    30   24   27       1
    31   27   28       1
    32   28   29       1
    33   29   30       1
    34   29   31       1
    35   30   35       1
    36   31   32       1
    37   31   33       1
    38   33   34       1
    39   33   35       1
    40   35   36       1
    41   36   37      ar
    42   36   44      ar
    43   37   38      ar
    44   38   39       1
    45   38   42      ar
    46   39   40       2
    47   39   41      am
    48   42   43      ar
    49   43   44      ar
    50   45   46      ar
    51   45   47      ar
    52   45   48      ar
    53   43   72       1
    54    5   49       1
    55    5   50       1
    56    6   51       1
    57    8   52       1
    58    9   53       1
    59   10   54       1
    60   12   55       1
    61   14   56       1
    62   18   57       1
    63   18   58       1
    64   20   59       1
    65   44   73       1
    66   28   60       1
    67   28   61       1
    68   29   62       1
    69   31   63       1
    70   32   64       1
    71   33   65       1
    72   34   66       1
    73   35   67       1
    74   37   68       1
    75   41   69       1
    76   41   70       1
    77   42   71       1
@<TRIPOS>SUBSTRUCTURE
     1 NDP400      1 GROUP             4 A     NDP     0 **** NDP A 400
