@<TRIPOS>MOLECULE
3qkz_NAP_1_ligand
   73    77     1     0     0
SMALL
NO_CHARGES


@<TRIPOS>ATOM
     1 PA          -8.4940     8.7310    38.6500 P.3          1 NAP350   0.0000
     2 O1A         -7.2570     8.1050    38.9410 O.co2        1 NAP350   0.0000
     3 O2A         -9.4290     8.0780    37.8240 O.co2        1 NAP350  -1.0000
     4 O5B         -8.2040    10.1780    38.1640 O.3          1 NAP350   0.0000
     5 C5B         -9.1570    11.1050    37.7270 C.3          1 NAP350   0.0000
     6 C4B         -8.5180    12.4280    37.3380 C.3          1 NAP350   0.0000
     7 O4B         -7.5680    12.2640    36.3510 O.3          1 NAP350   0.0000
     8 C3B         -9.4760    13.5240    36.8850 C.3          1 NAP350   0.0000
     9 O3B         -9.0680    14.7480    37.4150 O.3          1 NAP350   0.0000
    10 C2B         -9.2370    13.5670    35.3930 C.3          1 NAP350   0.0000
    11 O2B         -9.5700    14.7940    34.8100 O.3          1 NAP350   0.0000
    12 C1B         -7.7940    13.0630    35.2370 C.3          1 NAP350   0.0000
    13 N9A         -7.5640    12.2420    34.0450 N.pl3        1 NAP350   0.0000
    14 C8A         -8.3090    11.2800    33.5230 C.2          1 NAP350   0.0000
    15 N7A         -7.7420    10.7860    32.4310 N.2          1 NAP350   0.0000
    16 C5A         -6.6000    11.4060    32.2680 C.ar         1 NAP350   0.0000
    17 C6A         -5.5780    11.3470    31.3210 C.ar         1 NAP350   0.0000
    18 N6A         -5.5600    10.4920    30.3160 N.pl3        1 NAP350   0.0000
    19 N1A         -4.5520    12.1730    31.4990 N.ar         1 NAP350   0.0000
    20 C2A         -4.5460    13.0220    32.4890 C.ar         1 NAP350   0.0000
    21 N3A         -5.4620    13.0920    33.3860 N.ar         1 NAP350   0.0000
    22 C4A         -6.5100    12.3280    33.2980 C.ar         1 NAP350   0.0000
    23 O3          -9.2150     9.0420    40.0180 O.3          1 NAP350   0.0000
    24 PN         -10.6210     8.6720    40.7320 P.3          1 NAP350   0.0000
    25 O1N        -11.8100     9.3210    40.1470 O.co2        1 NAP350   0.0000
    26 O2N        -10.4460     8.8550    42.1930 O.co2        1 NAP350  -1.0000
    27 O5D        -10.8980     7.0750    40.5880 O.3          1 NAP350   0.0000
    28 C5D        -11.4680     6.4370    39.4910 C.3          1 NAP350   0.0000
    29 C4D        -12.9460     6.0890    39.8310 C.3          1 NAP350   0.0000
    30 O4D        -12.9330     5.0360    40.7520 O.3          1 NAP350   0.0000
    31 C3D        -13.8930     7.0960    40.4340 C.3          1 NAP350   0.0000
    32 O3D        -14.4450     8.0050    39.5410 O.3          1 NAP350   0.0000
    33 C2D        -14.9660     6.1280    40.8850 C.3          1 NAP350   0.0000
    34 O2D        -15.7250     5.6120    39.7900 O.3          1 NAP350   0.0000
    35 C1D        -14.0930     5.0350    41.5110 C.3          1 NAP350   0.0000
    36 N1N        -13.6930     5.1450    42.9400 N.ar         1 NAP350   1.0000
    37 C2N        -14.1870     4.2870    43.8480 C.ar         1 NAP350   0.0000
    38 C3N        -13.8180     4.3870    45.1670 C.ar         1 NAP350   0.0000
    39 C7N        -14.3220     3.5040    46.2700 C.2          1 NAP350   0.0000
    40 O7N        -14.2743     3.7878    47.3854 O.2          1 NAP350   0.0000
    41 N7N        -14.8427     2.3984    45.9003 N.am         1 NAP350   0.0000
    42 C4N        -12.9250     5.3720    45.5360 C.ar         1 NAP350   0.0000
    43 C5N        -12.4060     6.2400    44.5990 C.ar         1 NAP350   0.0000
    44 C6N        -12.8080     6.0840    43.2940 C.ar         1 NAP350   0.0000
    45 P2B        -10.8650    15.0160    33.9960 P.3          1 NAP350   0.0000
    46 O1X        -11.9500    14.2820    34.6160 O.co2        1 NAP350   0.0000
    47 O2X        -10.9830    16.4490    34.1430 O.co2        1 NAP350  -1.0000
    48 O3X        -10.5380    14.7480    32.6610 O.co2        1 NAP350  -1.0000
    49 H5B1        -9.8135    11.2665    38.4638 H            1 NAP350   0.0000
    50 H5B2        -9.6337    10.7294    36.9322 H            1 NAP350   0.0000
    51 H4B         -8.0421    12.7719    38.1475 H            1 NAP350   0.0000
    52 H3B        -10.4271    13.3122    37.1100 H            1 NAP350   0.0000
    53 H5          -9.6969    15.4663    37.1174 H            1 NAP350   0.0000
    54 H2B         -9.8331    12.8773    34.9820 H            1 NAP350   0.0000
    55 H1B         -7.1620    13.8379    35.2419 H            1 NAP350   0.0000
    56 H8A         -9.1808    10.9684    33.9009 H            1 NAP350   0.0000
    57 H6A1        -4.7983    10.4980    29.6680 H            1 NAP350   0.0000
    58 H6A2        -6.3080     9.8381    30.2024 H            1 NAP350   0.0000
    59 H2A         -3.7784    13.6597    32.5536 H            1 NAP350   0.0000
    60 H5D1       -10.9624     5.5982    39.2890 H            1 NAP350   0.0000
    61 H5D2       -11.4390     7.0432    38.6963 H            1 NAP350   0.0000
    62 H4D        -13.3709     5.7459    38.9933 H            1 NAP350   0.0000
    63 H3D        -13.4760     7.5628    41.2139 H            1 NAP350   0.0000
    64 H16        -13.8560     8.8107    39.4787 H            1 NAP350   0.0000
    65 H2D        -15.5626     6.5469    41.5695 H            1 NAP350   0.0000
    66 H18        -16.4190     4.9796    40.1341 H            1 NAP350   0.0000
    67 H1D        -14.5513     4.1557    41.3811 H            1 NAP350   0.0000
    68 H2N        -14.8259     3.5727    43.5623 H            1 NAP350   0.0000
    69 H7N1       -15.2298     1.7759    46.5805 H            1 NAP350   0.0000
    70 H7N2       -14.8635     2.1551    44.9306 H            1 NAP350   0.0000
    71 H4N        -12.6511     5.4573    46.4940 H            1 NAP350   0.0000
    72 H5N        -11.7601     6.9575    44.8596 H            1 NAP350   0.0000
    73 H6N        -12.4297     6.6871    42.5918 H            1 NAP350   0.0000
@<TRIPOS>BOND
     1    1    2      ar
     2    1    3      ar
     3    1    4       1
     4    1   23       1
     5    4    5       1
     6    5    6       1
     7    6    7       1
     8    6    8       1
     9    7   12       1
    10    8    9       1
    11    8   10       1
    12   10   11       1
    13   10   12       1
    14   11   45       1
    15   12   13       1
    16   13   14       1
    17   13   22       1
    18   14   15       2
    19   15   16       1
    20   16   17      ar
    21   16   22      ar
    22   17   18       1
    23   17   19      ar
    24   19   20      ar
    25   20   21      ar
    26   21   22      ar
    27   23   24       1
    28   24   25      ar
    29   24   26      ar
    30   24   27       1
    31   27   28       1
    32   28   29       1
    33   29   30       1
    34   29   31       1
    35   30   35       1
    36   31   32       1
    37   31   33       1
    38   33   34       1
    39   33   35       1
    40   35   36       1
    41   36   37      ar
    42   36   44      ar
    43   37   38      ar
    44   38   39       1
    45   38   42      ar
    46   39   40       2
    47   39   41      am
    48   42   43      ar
    49   43   44      ar
    50   45   46      ar
    51   45   47      ar
    52   45   48      ar
    53   43   72       1
    54    5   49       1
    55    5   50       1
    56    6   51       1
    57    8   52       1
    58    9   53       1
    59   10   54       1
    60   12   55       1
    61   14   56       1
    62   18   57       1
    63   18   58       1
    64   20   59       1
    65   44   73       1
    66   28   60       1
    67   28   61       1
    68   29   62       1
    69   31   63       1
    70   32   64       1
    71   33   65       1
    72   34   66       1
    73   35   67       1
    74   37   68       1
    75   41   69       1
    76   41   70       1
    77   42   71       1
@<TRIPOS>SUBSTRUCTURE
     1 NAP350      1 GROUP             4 A     NAP     0 **** NAP A 350
