@<TRIPOS>MOLECULE
4djh_JDC_1_ligand
   75    78     1     0     0
SMALL
USER_CHARGES


@<TRIPOS>ATOM
     1 C1           3.2120   -20.4100    59.6680 C.3          1 JDC1300   0.0000
     2 N2           2.9250   -21.7880    59.5580 N.4          1 JDC1300   1.0000
     3 C3           2.2000   -22.0810    58.3660 C.3          1 JDC1300   0.0000
     4 C4           0.8340   -21.4170    58.3950 C.3          1 JDC1300   0.0000
     5 C4A          0.9410   -19.9830    58.8450 C.ar         1 JDC1300   0.0000
     6 C5          -0.1620   -19.0560    58.6390 C.ar         1 JDC1300   0.0000
     7 C6          -0.0500   -17.7050    59.0610 C.ar         1 JDC1300   0.0000
     8 C7           1.1110   -17.2580    59.6700 C.ar         1 JDC1300   0.0000
     9 O7           1.2310   -15.9780    60.0740 O.3          1 JDC1300   0.0000
    10 C8           2.1660   -18.1470    59.8630 C.ar         1 JDC1300   0.0000
    11 C8A          2.0500   -19.5400    59.4310 C.ar         1 JDC1300   0.0000
    12 C1A          2.1110   -23.5980    58.1900 C.2          1 JDC1300   0.0000
    13 O1           1.7270   -24.3180    59.1200 O.2          1 JDC1300   0.0000
    14 N2A          2.5030   -24.1780    56.9210 N.am         1 JDC1300   0.0000
    15 C2A          2.4450   -25.5850    56.7110 C.3          1 JDC1300   0.0000
    16 C3A          1.6140   -25.7430    55.4290 C.3          1 JDC1300   0.0000
    17 C3D          0.1930   -25.0530    55.5450 C.3          1 JDC1300   0.0000
    18 C3B          1.5760   -27.1070    54.8640 C.3          1 JDC1300   0.0000
    19 C4D          3.8110   -26.2230    56.5650 C.3          1 JDC1300   0.0000
    20 N11          4.6780   -26.2930    57.8350 N.4          1 JDC1300   1.0000
    21 C21          4.0430   -27.0360    58.9030 C.3          1 JDC1300   0.0000
    22 C31          4.6790   -26.8460    60.2290 C.3          1 JDC1300   0.0000
    23 C34          4.3120   -25.4010    60.7390 C.3          1 JDC1300   0.0000
    24 C41          6.1290   -27.0320    60.2020 C.3          1 JDC1300   0.0000
    25 C51          6.7520   -26.2720    59.1520 C.3          1 JDC1300   0.0000
    26 C61          6.1150   -26.4610    57.8180 C.3          1 JDC1300   0.0000
    27 C4E          6.4230   -28.4780    59.8440 C.3          1 JDC1300   0.0000
    28 C1C          6.7210   -26.8030    61.5930 C.ar         1 JDC1300   0.0000
    29 C2C          6.1110   -27.3820    62.7090 C.ar         1 JDC1300   0.0000
    30 C3C          6.6580   -27.1750    63.9920 C.ar         1 JDC1300   0.0000
    31 O3C          6.0210   -27.7740    65.1510 O.3          1 JDC1300   0.0000
    32 C4C          7.8390   -26.3720    64.1480 C.ar         1 JDC1300   0.0000
    33 C5C          8.4410   -25.8010    63.0380 C.ar         1 JDC1300   0.0000
    34 C6C          7.8990   -26.0050    61.7540 C.ar         1 JDC1300   0.0000
    35 H1           3.9189   -20.1809    58.9988 H            1 JDC1300   0.0000
    36 H2           3.5558   -20.2323    60.5901 H            1 JDC1300   0.0000
    37 H3           2.3790   -22.0695    60.3471 H            1 JDC1300   0.0000
    38 H4           2.7108   -21.7076    57.5917 H            1 JDC1300   0.0000
    39 H5           0.2415   -21.9152    59.0280 H            1 JDC1300   0.0000
    40 H6           0.4380   -21.4432    57.4771 H            1 JDC1300   0.0000
    41 H7          -1.0023   -19.3720    58.1984 H            1 JDC1300   0.0000
    42 H8          -0.8123   -17.0737    58.9180 H            1 JDC1300   0.0000
    43 H9           0.4760   -15.3371    59.9355 H            1 JDC1300   0.0000
    44 H10          3.0082   -17.8309    60.2997 H            1 JDC1300   0.0000
    45 H2A          2.8185   -23.5818    56.1828 H            1 JDC1300   0.0000
    46 H12          1.9603   -26.0131    57.4737 H            1 JDC1300   0.0000
    47 H3A          2.1017   -25.2009    54.7447 H            1 JDC1300   0.0000
    48 H3D1        -0.3105   -25.1811    54.6905 H            1 JDC1300   0.0000
    49 H3D2        -0.3181   -25.4670    56.2983 H            1 JDC1300   0.0000
    50 H3D3         0.3104   -24.0754    55.7194 H            1 JDC1300   0.0000
    51 H3B1         1.0144   -27.1095    54.0366 H            1 JDC1300   0.0000
    52 H3B2         2.5049   -27.3999    54.6373 H            1 JDC1300   0.0000
    53 H3B3         1.1829   -27.7351    55.5355 H            1 JDC1300   0.0000
    54 H4D1         4.3183   -25.7005    55.8797 H            1 JDC1300   0.0000
    55 H4D2         3.6757   -27.1583    56.2381 H            1 JDC1300   0.0000
    56 H22          4.0780   -28.0087    58.6737 H            1 JDC1300   0.0000
    57 H23          3.0891   -26.7426    58.9666 H            1 JDC1300   0.0000
    58 H24          4.2881   -27.5124    60.8638 H            1 JDC1300   0.0000
    59 H25          4.7301   -25.2473    61.6343 H            1 JDC1300   0.0000
    60 H26          4.6545   -24.7215    60.0901 H            1 JDC1300   0.0000
    61 H27          3.3185   -25.3171    60.8162 H            1 JDC1300   0.0000
    62 H28          7.7103   -26.5501    59.0867 H            1 JDC1300   0.0000
    63 H29          6.7019   -25.3024    59.3914 H            1 JDC1300   0.0000
    64 H30          6.5042   -25.7928    57.1840 H            1 JDC1300   0.0000
    65 H31          6.3218   -27.3851    57.4967 H            1 JDC1300   0.0000
    66 H4E1         7.4124   -28.6213    59.8215 H            1 JDC1300   0.0000
    67 H4E2         6.0144   -29.0808    60.5294 H            1 JDC1300   0.0000
    68 H4E3         6.0358   -28.6843    58.9454 H            1 JDC1300   0.0000
    69 H2C          5.2894   -27.9412    62.5981 H            1 JDC1300   0.0000
    70 H3C          5.1980   -28.3306    65.0374 H            1 JDC1300   0.0000
    71 H4C          8.2268   -26.2250    65.0579 H            1 JDC1300   0.0000
    72 H5C          9.2629   -25.2423    63.1490 H            1 JDC1300   0.0000
    73 H6C          8.3368   -25.5926    60.9551 H            1 JDC1300   0.0000
    74 H40          3.7848   -22.2985    59.5484 H            1 JDC1300   0.0000
    75 H41          4.5969   -25.3565    58.1763 H            1 JDC1300   0.0000
@<TRIPOS>BOND
     1    1    2       1
     2    1   11       1
     3    2    3       1
     4    3    4       1
     5    3   12       1
     6    4    5       1
     7    5    6      ar
     8    5   11      ar
     9    6    7      ar
    10    7    8      ar
    11    8    9       1
    12    8   10      ar
    13   10   11      ar
    14   12   13       2
    15   12   14      am
    16   14   15       1
    17   15   16       1
    18   15   19       1
    19   16   17       1
    20   16   18       1
    21   19   20       1
    22   20   21       1
    23   20   26       1
    24   21   22       1
    25   22   23       1
    26   22   24       1
    27   24   25       1
    28   24   27       1
    29   24   28       1
    30   25   26       1
    31   28   29      ar
    32   28   34      ar
    33   29   30      ar
    34   30   31       1
    35   30   32      ar
    36   32   33      ar
    37   33   34      ar
    38    1   35       1
    39    1   36       1
    40    2   37       1
    41    3   38       1
    42    4   39       1
    43    4   40       1
    44    6   41       1
    45    7   42       1
    46    9   43       1
    47   10   44       1
    48   14   45       1
    49   15   46       1
    50   16   47       1
    51   17   48       1
    52   17   49       1
    53   17   50       1
    54   18   51       1
    55   18   52       1
    56   18   53       1
    57   19   54       1
    58   19   55       1
    59   21   56       1
    60   21   57       1
    61   22   58       1
    62   23   59       1
    63   23   60       1
    64   23   61       1
    65   25   62       1
    66   25   63       1
    67   26   64       1
    68   26   65       1
    69   27   66       1
    70   27   67       1
    71   27   68       1
    72   29   69       1
    73   31   70       1
    74   32   71       1
    75   33   72       1
    76   34   73       1
    77    2   74       1
    78   20   75       1
@<TRIPOS>SUBSTRUCTURE
     1 JDC1300     1 GROUP             4 A     JDC     0 **** JDC A1300
