@<TRIPOS>MOLECULE
1yhn_GTP_1_ligand
   44    46     1     0     0
SMALL
NO_CHARGES


@<TRIPOS>ATOM
     1 PG          16.8420    65.8860    32.2400 P.3          1 GTP301   0.0000
     2 O1G         15.9750    66.5950    33.2570 O.co2        1 GTP301   0.0000
     3 O2G         16.2800    65.8390    30.8430 O.co2        1 GTP301  -1.0000
     4 O3G         17.1070    64.4600    32.7050 O.co2        1 GTP301  -1.0000
     5 O3B         18.2180    66.7090    32.1680 O.3          1 GTP301   0.0000
     6 PB          19.3730    66.5610    33.2260 P.3          1 GTP301   0.0000
     7 O1B         20.5790    67.3330    32.9650 O.co2        1 GTP301   0.0000
     8 O2B         19.6600    65.1610    33.3510 O.co2        1 GTP301  -1.0000
     9 O3A         18.8410    66.9440    34.6210 O.3          1 GTP301   0.0000
    10 PA          19.3410    67.7990    35.8660 P.3          1 GTP301   0.0000
    11 O1A         18.1530    67.8490    36.7840 O.co2        1 GTP301   0.0000
    12 O2A         19.9530    69.0740    35.4060 O.co2        1 GTP301  -1.0000
    13 O5'         20.3160    66.8560    36.6680 O.3          1 GTP301   0.0000
    14 C5'         21.4620    66.1590    36.2920 C.3          1 GTP301   0.0000
    15 C4'         21.9380    65.3970    37.5570 C.3          1 GTP301   0.0000
    16 O4'         23.3770    65.4650    37.7080 O.3          1 GTP301   0.0000
    17 C3'         21.4030    65.9100    38.9250 C.3          1 GTP301   0.0000
    18 O3'         21.1730    64.8400    39.8350 O.3          1 GTP301   0.0000
    19 C2'         22.4610    66.8580    39.3800 C.3          1 GTP301   0.0000
    20 O2'         22.5490    66.8730    40.8070 O.3          1 GTP301   0.0000
    21 C1'         23.7290    66.3380    38.8010 C.3          1 GTP301   0.0000
    22 N9          24.6260    67.3590    38.2370 N.pl3        1 GTP301   0.0000
    23 C8          24.2960    68.3200    37.3080 C.2          1 GTP301   0.0000
    24 N7          25.2810    69.1000    36.9950 N.2          1 GTP301   0.0000
    25 C5          26.3360    68.6430    37.7670 C.2          1 GTP301   0.0000
    26 C6          27.6940    69.0900    37.8680 C.2          1 GTP301   0.0000
    27 O6          28.2630    70.0240    37.2920 O.2          1 GTP301   0.0000
    28 N1          28.4400    68.3290    38.7850 N.pl3        1 GTP301   0.0000
    29 C2          27.9420    67.2600    39.5050 C.2          1 GTP301   0.0000
    30 N2          28.8170    66.6640    40.3210 N.pl3        1 GTP301   0.0000
    31 N3          26.6880    66.8320    39.4170 N.2          1 GTP301   0.0000
    32 C4          25.9380    67.5690    38.5350 C.2          1 GTP301   0.0000
    33 H5'1        22.1693    66.7951    35.9835 H            1 GTP301   0.0000
    34 H5'2        21.2504    65.5141    35.5576 H            1 GTP301   0.0000
    35 H4'         21.6785    64.4362    37.4598 H            1 GTP301   0.0000
    36 H3'         20.5496    66.4108    38.7801 H            1 GTP301   0.0000
    37 H5          21.3118    65.1630    40.7712 H            1 GTP301   0.0000
    38 H2'         22.2739    67.7777    39.0347 H            1 GTP301   0.0000
    39 H7          21.9331    67.5714    41.1716 H            1 GTP301   0.0000
    40 H1'         24.2202    65.8146    39.4972 H            1 GTP301   0.0000
    41 H9          23.3818    68.4074    36.9123 H            1 GTP301   0.0000
    42 H10         29.3980    68.5788    38.9260 H            1 GTP301   0.0000
    43 H11         28.5313    65.8825    40.8756 H            1 GTP301   0.0000
    44 H12         29.7573    66.9997    40.3769 H            1 GTP301   0.0000
@<TRIPOS>BOND
     1    1    2      ar
     2    1    3      ar
     3    1    4      ar
     4    1    5       1
     5    5    6       1
     6    6    7      ar
     7    6    8      ar
     8    6    9       1
     9    9   10       1
    10   10   11      ar
    11   10   12      ar
    12   10   13       1
    13   13   14       1
    14   14   15       1
    15   15   16       1
    16   15   17       1
    17   16   21       1
    18   17   18       1
    19   17   19       1
    20   19   20       1
    21   19   21       1
    22   21   22       1
    23   22   23       1
    24   22   32       1
    25   23   24       2
    26   24   25       1
    27   25   26       1
    28   25   32       2
    29   26   27       2
    30   26   28       1
    31   28   29       1
    32   29   30       1
    33   29   31       2
    34   31   32       1
    35   30   44       1
    36   30   43       1
    37   28   42       1
    38   23   41       1
    39   14   33       1
    40   14   34       1
    41   15   35       1
    42   17   36       1
    43   18   37       1
    44   19   38       1
    45   20   39       1
    46   21   40       1
@<TRIPOS>SUBSTRUCTURE
     1 GTP301      1 GROUP             4 A     GTP     0 **** GTP A 301
