@<TRIPOS>MOLECULE
4ykl_GMP_1_ligand
   33    35     1     0     0
SMALL
NO_CHARGES


@<TRIPOS>ATOM
     1 O5'        -26.2200    82.2410    22.0570 O.3          1 GMP302   0.0000
     2 C5'        -26.5300    81.5810    23.2800 C.3          1 GMP302   0.0000
     3 C4'        -26.4820    80.0800    23.1470 C.3          1 GMP302   0.0000
     4 O4'        -26.3900    79.4880    24.4720 O.3          1 GMP302   0.0000
     5 C3'        -27.7030    79.4500    22.4830 C.3          1 GMP302   0.0000
     6 O3'        -27.2960    78.3220    21.7100 O.3          1 GMP302   0.0000
     7 C2'        -28.5370    78.9820    23.6720 C.3          1 GMP302   0.0000
     8 O2'        -29.3970    77.9000    23.3900 O.3          1 GMP302   0.0000
     9 C1'        -27.4590    78.5830    24.6710 C.3          1 GMP302   0.0000
    10 N9         -27.8770    78.6820    26.0700 N.pl3        1 GMP302   0.0000
    11 C8         -28.7940    79.5290    26.5540 C.2          1 GMP302   0.0000
    12 N7         -28.9070    79.3370    27.8890 N.2          1 GMP302   0.0000
    13 C5         -28.0450    78.3600    28.2350 C.2          1 GMP302   0.0000
    14 C6         -27.7260    77.7490    29.4380 C.2          1 GMP302   0.0000
    15 O6         -28.2930    78.0960    30.4970 O.2          1 GMP302   0.0000
    16 N1         -26.8010    76.7830    29.4580 N.2          1 GMP302   0.0000
    17 C2         -26.1770    76.3920    28.3350 C.2          1 GMP302   0.0000
    18 N2         -25.2460    75.4070    28.3950 N.pl3        1 GMP302   0.0000
    19 N3         -26.4670    76.9620    27.1440 N.pl3        1 GMP302   0.0000
    20 C4         -27.3950    77.9520    27.0810 C.2          1 GMP302   0.0000
    21 H5'        -25.2346    82.4038    22.0065 H            1 GMP302   0.0000
    22 H5'1       -27.4498    81.8494    23.5663 H            1 GMP302   0.0000
    23 H5'2       -25.8688    81.8638    23.9748 H            1 GMP302   0.0000
    24 H4'        -25.6667    79.8291    22.6252 H            1 GMP302   0.0000
    25 H3'        -28.2006    80.1150    21.9261 H            1 GMP302   0.0000
    26 H6         -26.8574    77.6499    22.3065 H            1 GMP302   0.0000
    27 H2'        -29.0668    79.7484    24.0352 H            1 GMP302   0.0000
    28 H8         -28.9181    77.0395    23.5638 H            1 GMP302   0.0000
    29 H1'        -27.1506    77.6515    24.4779 H            1 GMP302   0.0000
    30 H10        -29.3112    80.1951    26.0166 H            1 GMP302   0.0000
    31 H11        -24.7773    75.1107    27.5628 H            1 GMP302   0.0000
    32 H12        -25.0285    74.9773    29.2714 H            1 GMP302   0.0000
    33 H13        -26.0008    76.6565    26.3137 H            1 GMP302   0.0000
@<TRIPOS>BOND
     1    1    2       1
     2    2    3       1
     3    3    4       1
     4    3    5       1
     5    4    9       1
     6    5    6       1
     7    5    7       1
     8    7    8       1
     9    7    9       1
    10    9   10       1
    11   10   11       1
    12   10   20       1
    13   11   12       2
    14   12   13       1
    15   13   14       1
    16   13   20       2
    17   14   15       2
    18   14   16       1
    19   16   17       2
    20   17   18       1
    21   17   19       1
    22   19   20       1
    23    1   21       1
    24    2   22       1
    25    2   23       1
    26    3   24       1
    27    5   25       1
    28    6   26       1
    29    7   27       1
    30    8   28       1
    31    9   29       1
    32   11   30       1
    33   18   32       1
    34   18   31       1
    35   19   33       1
@<TRIPOS>SUBSTRUCTURE
     1 GMP302      1 GROUP             4 B     GMP     0 **** GMP B 302
