@<TRIPOS>MOLECULE
./coach420/2fk8/ligand.pdb
 27 29 0 0 0
SMALL
GASTEIGER

@<TRIPOS>ATOM
      1  N         24.1690   -5.6400   12.4260 N.3   302  SAM302     -0.1208
      2  CA        24.0260   -7.0980   12.2420 C.3   302  SAM302      0.1952
      3  C         22.7420   -7.6570   12.8850 C.2   302  SAM302      0.3819
      4  O         21.9910   -6.9130   13.5500 O.co2 302  SAM302     -0.2441
      5  OXT       22.4700   -8.8650   12.7110 O.co2 302  SAM302     -0.2441
      6  CB        25.2710   -7.8630   12.7040 C.3   302  SAM302      0.0414
      7  CG        25.5460   -7.7800   14.1900 C.3   302  SAM302      0.0503
      8  SD        26.8600   -8.9610   14.5940 S.3   302  SAM302     -0.1761
      9  CE        26.5750   -9.1950   16.3780 C.3   302  SAM302      0.0590
     10  C5'       28.4190   -7.9710   14.4850 C.3   302  SAM302      0.0805
     11  C4'       28.9120   -7.4090   13.1180 C.3   302  SAM302      0.1602
     12  O4'       29.8910   -6.3850   13.3220 O.3   302  SAM302     -0.3324
     13  C3'       29.6350   -8.3990   12.1880 C.3   302  SAM302      0.2144
     14  O3'       29.1940   -8.1880   10.8390 O.3   302  SAM302     -0.2176
     15  C2'       31.1370   -8.0640   12.3640 C.3   302  SAM302      0.2336
     16  O2'       31.9330   -8.4410   11.2660 O.3   302  SAM302     -0.2155
     17  C1'       31.0150   -6.5520   12.4710 C.3   302  SAM302      0.2409
     18  N9        32.2040   -5.7820   12.9410 N.ar  302  SAM302     -0.2693
     19  C8        32.9310   -5.9420   14.0990 C.ar  302  SAM302      0.1816
     20  N7        33.9030   -4.9770   14.1350 N.ar  302  SAM302     -0.2193
     21  C5        33.7830   -4.1860   13.0170 C.ar  302  SAM302      0.1518
     22  C6        34.5180   -3.0860   12.5380 C.ar  302  SAM302      0.1919
     23  N6        35.5790   -2.5900   13.2100 N.pl3 302  SAM302     -0.1054
     24  N1        34.1220   -2.4870   11.3520 N.ar  302  SAM302     -0.2040
     25  C2        33.0670   -2.9980   10.6210 C.ar  302  SAM302      0.2016
     26  N3        32.3560   -4.0900   11.0840 N.ar  302  SAM302     -0.2048
     27  C4        32.7120   -4.6810   12.2690 C.ar  302  SAM302      0.1692
@<TRIPOS>BOND
     1     1     2    1
     2     2     6    1
     3     2     3    1
     4     3     5   ar
     5     3     4   ar
     6     6     7    1
     7     7     8    1
     8     8    10    1
     9     8     9    1
    10    10    11    1
    11    11    13    1
    12    11    12    1
    13    12    17    1
    14    13    14    1
    15    13    15    1
    16    15    16    1
    17    15    17    1
    18    17    18    1
    19    18    27   ar
    20    18    19   ar
    21    19    20   ar
    22    20    21   ar
    23    21    27   ar
    24    21    22   ar
    25    22    24   ar
    26    22    23    1
    27    24    25   ar
    28    25    26   ar
    29    26    27   ar
