@<TRIPOS>MOLECULE
3lst_SAH_1_ligand
   46    48     1     0     0
SMALL
NO_CHARGES


@<TRIPOS>ATOM
     1 N           38.7990    68.7950   103.7700 N.4          1 SAH346   1.0000
     2 CA          38.0340    68.3380   104.9640 C.3          1 SAH346   0.0000
     3 CB          37.2660    67.0850   104.5830 C.3          1 SAH346   0.0000
     4 CG          35.9230    67.0500   105.2870 C.3          1 SAH346   0.0000
     5 SD          35.0900    65.5590   104.8630 S.3          1 SAH346   0.0000
     6 C           38.9750    67.9740   106.0690 C.2          1 SAH346   0.0000
     7 O           38.6330    68.0430   107.2500 O.co2        1 SAH346   0.0000
     8 OXT         40.1130    67.5810   105.8140 O.co2        1 SAH346  -1.0000
     9 C5'         34.8370    65.7990   103.1290 C.3          1 SAH346   0.0000
    10 C4'         34.1010    67.1080   102.8330 C.3          1 SAH346   0.0000
    11 O4'         33.6730    67.1490   101.4670 O.3          1 SAH346   0.0000
    12 C3'         32.8620    67.3160   103.6900 C.3          1 SAH346   0.0000
    13 O3'         33.0070    68.5580   104.3860 O.3          1 SAH346   0.0000
    14 C2'         31.7020    67.3890   102.7160 C.3          1 SAH346   0.0000
    15 O2'         30.7600    68.4000   103.0860 O.3          1 SAH346   0.0000
    16 C1'         32.3730    67.7370   101.4030 C.3          1 SAH346   0.0000
    17 N9          31.5980    67.2250   100.2490 N.pl3        1 SAH346   0.0000
    18 C8          30.9350    66.0540   100.1870 C.2          1 SAH346   0.0000
    19 N7          30.3250    65.9040    98.9830 N.2          1 SAH346   0.0000
    20 C5          30.5950    67.0060    98.2580 C.ar         1 SAH346   0.0000
    21 C6          30.2640    67.5000    96.9030 C.ar         1 SAH346   0.0000
    22 N6          29.4990    66.7570    96.0680 N.pl3        1 SAH346   0.0000
    23 N1          30.7510    68.7080    96.5330 N.ar         1 SAH346   0.0000
    24 C2          31.5100    69.4500    97.3610 C.ar         1 SAH346   0.0000
    25 N3          31.8500    69.0640    98.6040 N.ar         1 SAH346   0.0000
    26 C4          31.4280    67.8760    99.0990 C.ar         1 SAH346   0.0000
    27 H1          39.3132    69.6213   103.9998 H            1 SAH346   0.0000
    28 H2          39.4331    68.0761   103.4852 H            1 SAH346   0.0000
    29 HA          37.4035    69.0528   105.2666 H            1 SAH346   0.0000
    30 HB1         37.7973    66.2802   104.8477 H            1 SAH346   0.0000
    31 HB2         37.1193    67.0770   103.5939 H            1 SAH346   0.0000
    32 HG1         35.3734    67.8343   104.9991 H            1 SAH346   0.0000
    33 HG2         36.0625    67.0860   106.2766 H            1 SAH346   0.0000
    34 H5'1        34.2962    65.0369   102.7731 H            1 SAH346   0.0000
    35 H5'2        35.7265    65.8184   102.6725 H            1 SAH346   0.0000
    36 H4'         34.7295    67.8693   102.9924 H            1 SAH346   0.0000
    37 H3'         32.7414    66.5591   104.3323 H            1 SAH346   0.0000
    38 H12         33.0974    69.3023   103.7243 H            1 SAH346   0.0000
    39 H2'         31.2487    66.5002   102.6491 H            1 SAH346   0.0000
    40 H14         31.0141    69.2660   102.6554 H            1 SAH346   0.0000
    41 H1'         32.4615    68.7303   101.3287 H            1 SAH346   0.0000
    42 H16         30.8971    65.3844   100.9287 H            1 SAH346   0.0000
    43 H17         29.2800    67.0983    95.1539 H            1 SAH346   0.0000
    44 H18         29.1532    65.8671    96.3656 H            1 SAH346   0.0000
    45 H19         31.8389    70.3361    97.0344 H            1 SAH346   0.0000
    46 H20         38.1641    68.9943   103.0236 H            1 SAH346   0.0000
@<TRIPOS>BOND
     1    1    2       1
     2    2    3       1
     3    2    6       1
     4    3    4       1
     5    4    5       1
     6    5    9       1
     7    6    7      ar
     8    6    8      ar
     9    9   10       1
    10   10   11       1
    11   10   12       1
    12   11   16       1
    13   12   13       1
    14   12   14       1
    15   14   15       1
    16   14   16       1
    17   16   17       1
    18   17   18       1
    19   17   26       1
    20   18   19       2
    21   19   20       1
    22   20   21      ar
    23   20   26      ar
    24   21   22       1
    25   21   23      ar
    26   23   24      ar
    27   24   25      ar
    28   25   26      ar
    29    1   27       1
    30    1   28       1
    31    2   29       1
    32    3   30       1
    33    3   31       1
    34    4   32       1
    35    4   33       1
    36    1   46       1
    37    9   34       1
    38    9   35       1
    39   10   36       1
    40   12   37       1
    41   13   38       1
    42   14   39       1
    43   15   40       1
    44   16   41       1
    45   18   42       1
    46   22   43       1
    47   22   44       1
    48   24   45       1
@<TRIPOS>SUBSTRUCTURE
     1 SAH346      1 GROUP             4 A     SAH     0 **** SAH A 346
