@<TRIPOS>MOLECULE
2imk_GTX_2_ligand
   54    53     1     0     0
SMALL
NO_CHARGES


@<TRIPOS>ATOM
     1 N1           5.3300    18.2870    25.7310 N.4          1 GTX301   1.0000
     2 CA1          4.2630    17.4410    26.2780 C.3          1 GTX301   0.0000
     3 C1           3.4820    18.3540    27.1870 C.2          1 GTX301   0.0000
     4 O11          2.2590    18.1550    27.4460 O.co2        1 GTX301   0.0000
     5 O12          4.1660    19.2820    27.6810 O.co2        1 GTX301  -1.0000
     6 CB1          4.8570    16.2190    27.0030 C.3          1 GTX301   0.0000
     7 CG1          3.8510    15.4990    27.9330 C.3          1 GTX301   0.0000
     8 CD1          4.2890    14.1590    28.4450 C.2          1 GTX301   0.0000
     9 OE1          5.1240    13.4840    27.8530 O.2          1 GTX301   0.0000
    10 N2           3.6940    13.7560    29.5840 N.am         1 GTX301   0.0000
    11 CA2          3.9620    12.4500    30.2060 C.3          1 GTX301   0.0000
    12 C2           3.0100    11.3530    29.7830 C.2          1 GTX301   0.0000
    13 O2           1.8150    11.6030    29.7830 O.2          1 GTX301   0.0000
    14 CB2          3.7330    12.6990    31.7090 C.3          1 GTX301   0.0000
    15 SG2          5.0100    13.7410    32.3260 S.3          1 GTX301   0.0000
    16 C1S          6.3730    12.6510    32.6410 C.3          1 GTX301   0.0000
    17 C2S          6.3750    12.1370    34.0950 C.3          1 GTX301   0.0000
    18 C3S          5.2010    11.2060    34.3760 C.3          1 GTX301   0.0000
    19 C4S          4.5760    11.4760    35.7360 C.3          1 GTX301   0.0000
    20 C5S          5.1960    10.4630    36.6840 C.3          1 GTX301   0.0000
    21 C6S          4.2350     9.9220    37.7240 C.3          1 GTX301   0.0000
    22 N3           3.4470    10.1220    29.4220 N.am         1 GTX301   0.0000
    23 CA3          2.6030     9.0180    28.9890 C.3          1 GTX301   0.0000
    24 C3           3.0040     8.5720    27.5610 C.2          1 GTX301   0.0000
    25 O31          2.6030     7.4620    27.0880 O.co2        1 GTX301   0.0000
    26 O32          3.7350     9.2960    26.8700 O.co2        1 GTX301  -1.0000
    27 H1           6.1314    18.2400    26.3273 H            1 GTX301   0.0000
    28 H2           5.5754    17.9646    24.8168 H            1 GTX301   0.0000
    29 HA1          3.6722    17.1299    25.5336 H            1 GTX301   0.0000
    30 HB11         5.6333    16.5252    27.5541 H            1 GTX301   0.0000
    31 HB12         5.1737    15.5664    26.3146 H            1 GTX301   0.0000
    32 HG11         2.9991    15.3712    27.4251 H            1 GTX301   0.0000
    33 HG12         3.6833    16.0903    28.7218 H            1 GTX301   0.0000
    34 H8           3.0415    14.3714    30.0263 H            1 GTX301   0.0000
    35 HA2          4.9083    12.1729    30.0394 H            1 GTX301   0.0000
    36 HB21         3.7476    11.8270    32.1982 H            1 GTX301   0.0000
    37 HB22         2.8464    13.1417    31.8431 H            1 GTX301   0.0000
    38 H1S1         7.2266    13.1435    32.4711 H            1 GTX301   0.0000
    39 H1S2         6.3108    11.8684    32.0216 H            1 GTX301   0.0000
    40 H2S1         6.3205    12.9205    34.7140 H            1 GTX301   0.0000
    41 H2S2         7.2271    11.6403    34.2602 H            1 GTX301   0.0000
    42 H3S1         5.5252    10.2603    34.3512 H            1 GTX301   0.0000
    43 H3S2         4.5065    11.3390    33.6689 H            1 GTX301   0.0000
    44 H4S1         3.5845    11.3528    35.6944 H            1 GTX301   0.0000
    45 H4S2         4.7839    12.4069    36.0363 H            1 GTX301   0.0000
    46 H5S1         5.9583    10.9026    37.1590 H            1 GTX301   0.0000
    47 H5S2         5.5387     9.6950    36.1430 H            1 GTX301   0.0000
    48 H6S1         4.7114     9.2649    38.3082 H            1 GTX301   0.0000
    49 H6S2         3.8897    10.6759    38.2829 H            1 GTX301   0.0000
    50 H6S3         3.4700     9.4683    37.2669 H            1 GTX301   0.0000
    51 H25          4.4329     9.9583    29.4560 H            1 GTX301   0.0000
    52 HA31         1.6474     9.3126    28.9877 H            1 GTX301   0.0000
    53 HA32         2.7140     8.2495    29.6192 H            1 GTX301   0.0000
    54 H28          5.0103    19.2329    25.6762 H            1 GTX301   0.0000
@<TRIPOS>BOND
     1    1    2       1
     2    2    3       1
     3    2    6       1
     4    3    4      ar
     5    3    5      ar
     6    6    7       1
     7    7    8       1
     8    8    9       2
     9    8   10      am
    10   10   11       1
    11   11   12       1
    12   11   14       1
    13   12   13       2
    14   12   22      am
    15   14   15       1
    16   15   16       1
    17   16   17       1
    18   17   18       1
    19   18   19       1
    20   19   20       1
    21   20   21       1
    22   22   23       1
    23   23   24       1
    24   24   25      ar
    25   24   26      ar
    26    1   27       1
    27    1   28       1
    28    2   29       1
    29    1   54       1
    30    6   30       1
    31    6   31       1
    32    7   32       1
    33    7   33       1
    34   10   34       1
    35   11   35       1
    36   14   36       1
    37   14   37       1
    38   16   38       1
    39   16   39       1
    40   17   40       1
    41   17   41       1
    42   18   42       1
    43   18   43       1
    44   19   44       1
    45   19   45       1
    46   20   46       1
    47   20   47       1
    48   21   48       1
    49   21   49       1
    50   21   50       1
    51   22   51       1
    52   23   52       1
    53   23   53       1
@<TRIPOS>SUBSTRUCTURE
     1 GTX301      1 GROUP             4 B     GTX     0 **** GTX B 301
