@<TRIPOS>MOLECULE
1bif_AGS_1_ligand
   43    45     1     0     0
SMALL
NO_CHARGES


@<TRIPOS>ATOM
     1 PG          56.6360    55.4400    55.3520 P.3          1 AGS500   0.0000
     2 S1G         56.2820    56.9940    54.5250 S.2          1 AGS500   0.0000
     3 O2G         55.7280    54.4050    54.7660 O.co2        1 AGS500  -1.0000
     4 O3G         58.0610    55.0420    55.3840 O.co2        1 AGS500  -1.0000
     5 PB          54.9820    55.0760    57.6580 P.3          1 AGS500   0.0000
     6 O1B         54.2270    54.2250    56.7100 O.co2        1 AGS500   0.0000
     7 O2B         54.3390    56.3520    58.0640 O.co2        1 AGS500  -1.0000
     8 O3B         56.3280    55.4950    56.9520 O.3          1 AGS500   0.0000
     9 PA          54.7870    52.6730    59.2950 P.3          1 AGS500   0.0000
    10 O1A         55.8860    52.0110    58.5530 O.co2        1 AGS500   0.0000
    11 O2A         53.3740    52.2730    59.1300 O.co2        1 AGS500  -1.0000
    12 O3A         55.0390    54.3170    59.0130 O.3          1 AGS500   0.0000
    13 O5'         55.0200    52.6950    60.8680 O.3          1 AGS500   0.0000
    14 C5'         54.6570    51.6040    61.6730 C.3          1 AGS500   0.0000
    15 C4'         55.0540    52.0000    63.1000 C.3          1 AGS500   0.0000
    16 O4'         54.3180    53.1210    63.4820 O.3          1 AGS500   0.0000
    17 C3'         54.8670    50.9240    64.1730 C.3          1 AGS500   0.0000
    18 O3'         55.8420    51.1260    65.1760 O.3          1 AGS500   0.0000
    19 C2'         53.5330    51.3820    64.7930 C.3          1 AGS500   0.0000
    20 O2'         53.2940    50.9060    66.1370 O.3          1 AGS500   0.0000
    21 C1'         53.6990    52.9150    64.7010 C.3          1 AGS500   0.0000
    22 N9          52.3690    53.5450    64.6220 N.pl3        1 AGS500   0.0000
    23 C8          51.1210    53.0150    64.3520 C.2          1 AGS500   0.0000
    24 N7          50.0670    53.8020    64.4410 N.2          1 AGS500   0.0000
    25 C5          50.6820    54.9850    64.7810 C.ar         1 AGS500   0.0000
    26 C6          50.1810    56.2680    65.0820 C.ar         1 AGS500   0.0000
    27 N6          48.7620    56.5640    64.9510 N.pl3        1 AGS500   0.0000
    28 N1          51.0490    57.2300    65.4960 N.ar         1 AGS500   0.0000
    29 C2          52.3990    57.0100    65.4490 C.ar         1 AGS500   0.0000
    30 N3          53.0220    55.8490    65.1440 N.ar         1 AGS500   0.0000
    31 C4          52.1060    54.8660    64.8160 C.ar         1 AGS500   0.0000
    32 H5'1        55.1486    50.7808    61.3889 H            1 AGS500   0.0000
    33 H5'2        53.6721    51.4402    61.6167 H            1 AGS500   0.0000
    34 H4'         56.0203    52.2571    63.0890 H            1 AGS500   0.0000
    35 H3'         54.8459    49.9919    63.8115 H            1 AGS500   0.0000
    36 H5          55.3895    51.2928    66.0520 H            1 AGS500   0.0000
    37 H2'         52.7787    51.0955    64.2022 H            1 AGS500   0.0000
    38 H7          52.7348    51.5712    66.6317 H            1 AGS500   0.0000
    39 H1'         54.2394    53.2781    65.4600 H            1 AGS500   0.0000
    40 H9          51.0198    52.0541    64.0944 H            1 AGS500   0.0000
    41 H10         48.4199    57.4783    65.1678 H            1 AGS500   0.0000
    42 H11         48.1292    55.8531    64.6442 H            1 AGS500   0.0000
    43 H12         52.9869    57.7902    65.6628 H            1 AGS500   0.0000
@<TRIPOS>BOND
     1    1    2       2
     2    1    3      ar
     3    1    4      ar
     4    1    8       1
     5    5    6      ar
     6    5    7      ar
     7    5    8       1
     8    5   12       1
     9    9   10      ar
    10    9   11      ar
    11    9   12       1
    12    9   13       1
    13   13   14       1
    14   14   15       1
    15   15   16       1
    16   15   17       1
    17   16   21       1
    18   17   18       1
    19   17   19       1
    20   19   20       1
    21   19   21       1
    22   21   22       1
    23   22   23       1
    24   22   31       1
    25   23   24       2
    26   24   25       1
    27   25   26      ar
    28   25   31      ar
    29   26   27       1
    30   26   28      ar
    31   28   29      ar
    32   29   30      ar
    33   30   31      ar
    34   29   43       1
    35   27   42       1
    36   27   41       1
    37   23   40       1
    38   14   32       1
    39   14   33       1
    40   15   34       1
    41   17   35       1
    42   18   36       1
    43   19   37       1
    44   20   38       1
    45   21   39       1
@<TRIPOS>SUBSTRUCTURE
     1 AGS500      1 GROUP             4 A     AGS     0 **** AGS A 500
