@<TRIPOS>MOLECULE
1a80_NDP_1_ligand
   73    77     1     0     0
SMALL
NO_CHARGES


@<TRIPOS>ATOM
     1 PA          11.5770    -1.5380    14.3260 P.3          1 NDP300   0.0000
     2 O1A         11.1300    -2.9520    14.3830 O.co2        1 NDP300   0.0000
     3 O2A         10.5660    -0.5450    13.8290 O.co2        1 NDP300  -1.0000
     4 O5B         12.8200    -1.5180    13.4770 O.3          1 NDP300   0.0000
     5 C5B         13.7070    -0.3960    13.2060 C.3          1 NDP300   0.0000
     6 C4B         14.9140    -0.8630    12.3750 C.3          1 NDP300   0.0000
     7 O4B         14.5130    -1.3250    11.0660 O.3          1 NDP300   0.0000
     8 C3B         15.9830     0.1780    12.1140 C.3          1 NDP300   0.0000
     9 O3B         17.2470    -0.4500    12.0740 O.3          1 NDP300   0.0000
    10 C2B         15.6210     0.7400    10.7390 C.3          1 NDP300   0.0000
    11 O2B         16.7860     1.0890    10.0370 O.3          1 NDP300   0.0000
    12 C1B         14.9800    -0.4430    10.0460 C.3          1 NDP300   0.0000
    13 N9A         13.8360    -0.0530     9.2350 N.pl3        1 NDP300   0.0000
    14 C8A         12.6870     0.6780     9.2360 C.2          1 NDP300   0.0000
    15 N7A         11.9830     0.5860     8.1370 N.2          1 NDP300   0.0000
    16 C5A         12.7260    -0.2710     7.3590 C.ar         1 NDP300   0.0000
    17 C6A         12.5380    -0.7650     6.0560 C.ar         1 NDP300   0.0000
    18 N6A         11.4860    -0.4500     5.2840 N.pl3        1 NDP300   0.0000
    19 N1A         13.4840    -1.5970     5.5750 N.ar         1 NDP300   0.0000
    20 C2A         14.5380    -1.9090     6.3430 C.ar         1 NDP300   0.0000
    21 N3A         14.8300    -1.4930     7.5720 N.ar         1 NDP300   0.0000
    22 C4A         13.8800    -0.6610     8.0190 C.ar         1 NDP300   0.0000
    23 O3          12.1710    -1.5010    15.7360 O.3          1 NDP300   0.0000
    24 PN          11.9540    -0.3230    16.8890 P.3          1 NDP300   0.0000
    25 O1N         12.5890    -0.8940    18.1240 O.co2        1 NDP300   0.0000
    26 O2N         12.3580     1.0630    16.5320 O.co2        1 NDP300  -1.0000
    27 O5D         10.4660    -0.3510    17.0890 O.3          1 NDP300   0.0000
    28 C5D          9.6560     0.7460    16.6760 C.3          1 NDP300   0.0000
    29 C4D          9.3320     1.7420    17.7960 C.3          1 NDP300   0.0000
    30 O4D          8.4680     1.1710    18.8240 O.3          1 NDP300   0.0000
    31 C3D         10.4840     2.3500    18.5720 C.3          1 NDP300   0.0000
    32 O3D         11.1150     3.3520    17.7990 O.3          1 NDP300   0.0000
    33 C2D          9.7060     2.9650    19.7330 C.3          1 NDP300   0.0000
    34 O2D          9.0340     4.1460    19.3690 O.3          1 NDP300   0.0000
    35 C1D          8.6920     1.8680    20.0390 C.3          1 NDP300   0.0000
    36 N1N          9.2350     0.9230    20.9860 N.ar         1 NDP300   1.0000
    37 C2N          8.5420     0.8240    22.1460 C.ar         1 NDP300   0.0000
    38 C3N          9.0060     0.0700    23.2070 C.ar         1 NDP300   0.0000
    39 C7N          8.2390    -0.0750    24.5050 C.2          1 NDP300   0.0000
    40 O7N          8.6610    -0.8670    25.3290 O.2          1 NDP300   0.0000
    41 N7N          7.1390     0.6720    24.6420 N.am         1 NDP300   0.0000
    42 C4N         10.2260    -0.6050    23.1090 C.ar         1 NDP300   0.0000
    43 C5N         10.9640    -0.4930    21.9080 C.ar         1 NDP300   0.0000
    44 C6N         10.4230     0.2930    20.8770 C.ar         1 NDP300   0.0000
    45 P2B         17.0280     2.4930     9.6360 P.3          1 NDP300   0.0000
    46 O1X         16.3860     2.7530     8.3180 O.co2        1 NDP300   0.0000
    47 O2X         18.4920     2.7120     9.5990 O.co2        1 NDP300  -1.0000
    48 O3X         16.5040     3.4320    10.6530 O.co2        1 NDP300  -1.0000
    49 H5B1        14.0299    -0.0134    14.0717 H            1 NDP300   0.0000
    50 H5B2        13.2071     0.3051    12.6975 H            1 NDP300   0.0000
    51 H4B         15.3408    -1.6294    12.8550 H            1 NDP300   0.0000
    52 H3B         15.9617     0.8952    12.8106 H            1 NDP300   0.0000
    53 H5          17.1431    -1.3873    11.7414 H            1 NDP300   0.0000
    54 H2B         14.9891     1.5117    10.8110 H            1 NDP300   0.0000
    55 H1B         15.6563    -0.9103     9.4766 H            1 NDP300   0.0000
    56 H8A         12.4043     1.2396    10.0136 H            1 NDP300   0.0000
    57 H6A1        11.4081    -0.8342     4.3640 H            1 NDP300   0.0000
    58 H6A2        10.7802     0.1688     5.6289 H            1 NDP300   0.0000
    59 H2A         15.1957    -2.5423     5.9351 H            1 NDP300   0.0000
    60 H5D1         8.7949     0.3837    16.3192 H            1 NDP300   0.0000
    61 H5D2        10.1378     1.2361    15.9496 H            1 NDP300   0.0000
    62 H4D          8.8290     2.4986    17.3782 H            1 NDP300   0.0000
    63 H3D         11.1323     1.6552    18.8835 H            1 NDP300   0.0000
    64 H16         11.8478     2.9420    17.2560 H            1 NDP300   0.0000
    65 H2D         10.3051     3.1243    20.5177 H            1 NDP300   0.0000
    66 H18          8.2074     4.2435    19.9232 H            1 NDP300   0.0000
    67 H1D          7.8393     2.2615    20.3825 H            1 NDP300   0.0000
    68 H2N          7.6723     1.3091    22.2367 H            1 NDP300   0.0000
    69 H7N1         6.5963     0.6139    25.4799 H            1 NDP300   0.0000
    70 H7N2         6.8587     1.2889    23.9065 H            1 NDP300   0.0000
    71 H4N         10.5691    -1.1545    23.8708 H            1 NDP300   0.0000
    72 H5N         11.8422    -0.9581    21.7963 H            1 NDP300   0.0000
    73 H6N         10.9402     0.3896    20.0266 H            1 NDP300   0.0000
@<TRIPOS>BOND
     1    1    2      ar
     2    1    3      ar
     3    1    4       1
     4    1   23       1
     5    4    5       1
     6    5    6       1
     7    6    7       1
     8    6    8       1
     9    7   12       1
    10    8    9       1
    11    8   10       1
    12   10   11       1
    13   10   12       1
    14   11   45       1
    15   12   13       1
    16   13   14       1
    17   13   22       1
    18   14   15       2
    19   15   16       1
    20   16   17      ar
    21   16   22      ar
    22   17   18       1
    23   17   19      ar
    24   19   20      ar
    25   20   21      ar
    26   21   22      ar
    27   23   24       1
    28   24   25      ar
    29   24   26      ar
    30   24   27       1
    31   27   28       1
    32   28   29       1
    33   29   30       1
    34   29   31       1
    35   30   35       1
    36   31   32       1
    37   31   33       1
    38   33   34       1
    39   33   35       1
    40   35   36       1
    41   36   37      ar
    42   36   44      ar
    43   37   38      ar
    44   38   39       1
    45   38   42      ar
    46   39   40       2
    47   39   41      am
    48   42   43      ar
    49   43   44      ar
    50   45   46      ar
    51   45   47      ar
    52   45   48      ar
    53   43   72       1
    54    5   49       1
    55    5   50       1
    56    6   51       1
    57    8   52       1
    58    9   53       1
    59   10   54       1
    60   12   55       1
    61   14   56       1
    62   18   57       1
    63   18   58       1
    64   20   59       1
    65   44   73       1
    66   28   60       1
    67   28   61       1
    68   29   62       1
    69   31   63       1
    70   32   64       1
    71   33   65       1
    72   34   66       1
    73   35   67       1
    74   37   68       1
    75   41   69       1
    76   41   70       1
    77   42   71       1
@<TRIPOS>SUBSTRUCTURE
     1 NDP300      1 GROUP             4 A     NDP     0 **** NDP A 300
