@<TRIPOS>MOLECULE
2cft_PLP_1_ligand
   24    24     1     0     0
SMALL
NO_CHARGES


@<TRIPOS>ATOM
     1 N1          21.8520    19.9350    15.8200 N.ar         1 PLP1296   0.0000
     2 C2          21.6130    18.5900    15.6240 C.ar         1 PLP1296   0.0000
     3 C2A         20.6010    18.1650    14.5910 C.3          1 PLP1296   0.0000
     4 C3          22.2990    17.6210    16.3580 C.ar         1 PLP1296   0.0000
     5 O3          21.9250    16.3020    16.3140 O.3          1 PLP1296   0.0000
     6 C4          23.2390    18.0140    17.3050 C.ar         1 PLP1296   0.0000
     7 C4A         23.9530    16.9870    18.1470 C.2          1 PLP1296   0.0000
     8 O4A         23.3460    15.9500    18.4430 O.2          1 PLP1296   0.0000
     9 C5          23.4970    19.3510    17.5130 C.ar         1 PLP1296   0.0000
    10 C6          22.7930    20.3240    16.7810 C.ar         1 PLP1296   0.0000
    11 C5A         24.2780    19.6350    18.7950 C.3          1 PLP1296   0.0000
    12 O4P         24.2900    21.0170    19.0250 O.3          1 PLP1296   0.0000
    13 P           25.1980    21.6480    20.1720 P.3          1 PLP1296   0.0000
    14 O1P         26.6120    21.1710    19.9440 O.co2        1 PLP1296   0.0000
    15 O2P         24.6570    21.2580    21.5430 O.co2        1 PLP1296  -1.0000
    16 O3P         25.0990    23.1330    19.8690 O.co2        1 PLP1296  -1.0000
    17 H2A1        20.5444    17.1668    14.5708 H            1 PLP1296   0.0000
    18 H2A2        19.7061    18.5449    14.8250 H            1 PLP1296   0.0000
    19 H2A3        20.8811    18.5013    13.6919 H            1 PLP1296   0.0000
    20 H4          22.4283    15.6215    16.8466 H            1 PLP1296   0.0000
    21 H4A         24.8912    17.1396    18.4577 H            1 PLP1296   0.0000
    22 H6          22.9648    21.2950    16.9472 H            1 PLP1296   0.0000
    23 H5A1        25.2162    19.3033    18.6965 H            1 PLP1296   0.0000
    24 H5A2        23.8395    19.1708    19.5646 H            1 PLP1296   0.0000
@<TRIPOS>BOND
     1    1    2      ar
     2    1   10      ar
     3    2    3       1
     4    2    4      ar
     5    4    5       1
     6    4    6      ar
     7    6    7       1
     8    6    9      ar
     9    7    8       2
    10    9   10      ar
    11    9   11       1
    12   11   12       1
    13   12   13       1
    14   13   14      ar
    15   13   15      ar
    16   13   16      ar
    17    3   17       1
    18    3   18       1
    19    3   19       1
    20    5   20       1
    21    7   21       1
    22   10   22       1
    23   11   23       1
    24   11   24       1
@<TRIPOS>SUBSTRUCTURE
     1 PLP1296     1 GROUP             4 A     PLP     0 **** PLP A1296
