@<TRIPOS>MOLECULE
1phh_FAD_1_ligand
   84    89     1     0     0
SMALL
NO_CHARGES


@<TRIPOS>ATOM
     1 PA          23.5400    97.9170    60.2560 P.3          1 FAD395   0.0000
     2 O1A         22.7570    98.4400    59.0660 O.co2        1 FAD395   0.0000
     3 O2A         24.9980    97.6090    60.0810 O.co2        1 FAD395  -1.0000
     4 O5B         23.5010    98.8930    61.5380 O.3          1 FAD395   0.0000
     5 C5B         24.3740    98.5350    62.6960 C.3          1 FAD395   0.0000
     6 C4B         24.4460    99.7880    63.5620 C.3          1 FAD395   0.0000
     7 O4B         25.3380    99.5400    64.6660 O.3          1 FAD395   0.0000
     8 C3B         25.0570   101.0080    62.8060 C.3          1 FAD395   0.0000
     9 O3B         24.2790   102.1630    63.1590 O.3          1 FAD395   0.0000
    10 C2B         26.4390   101.2290    63.4170 C.3          1 FAD395   0.0000
    11 O2B         26.8800   102.5480    63.5220 O.3          1 FAD395   0.0000
    12 C1B         26.2120   100.6270    64.8160 C.3          1 FAD395   0.0000
    13 N9A         27.4860   100.1720    65.4330 N.pl3        1 FAD395   0.0000
    14 C8A         28.4990    99.4580    64.7990 C.2          1 FAD395   0.0000
    15 N7A         29.4640    99.1460    65.6670 N.2          1 FAD395   0.0000
    16 C5A         29.0950    99.7020    66.8640 C.ar         1 FAD395   0.0000
    17 C6A         29.6790    99.7370    68.1140 C.ar         1 FAD395   0.0000
    18 N6A         30.8650    99.1450    68.3890 N.pl3        1 FAD395   0.0000
    19 N1A         29.0090   100.3810    69.0880 N.ar         1 FAD395   0.0000
    20 C2A         27.7770   100.9930    68.8560 C.ar         1 FAD395   0.0000
    21 N3A         27.1660   101.0090    67.7040 N.ar         1 FAD395   0.0000
    22 C4A         27.8270   100.3770    66.7250 C.ar         1 FAD395   0.0000
    23 N1          17.5190    93.2270    52.7130 N.2          1 FAD395   0.0000
    24 C2          16.1900    93.1780    52.3340 C.2          1 FAD395   0.0000
    25 O2          15.2850    92.7720    53.0090 O.2          1 FAD395   0.0000
    26 N3          15.8380    93.6300    51.0940 N.pl3        1 FAD395   0.0000
    27 C4          16.7540    94.1360    50.1570 C.2          1 FAD395   0.0000
    28 O4          16.2940    94.4930    49.0890 O.2          1 FAD395   0.0000
    29 C4X         18.1760    94.1570    50.6110 C.2          1 FAD395   0.0000
    30 N5          19.0400    94.6070    49.7800 N.2          1 FAD395   0.0000
    31 C5X         20.3510    94.6470    50.1310 C.ar         1 FAD395   0.0000
    32 C6          21.2170    95.1590    49.1540 C.ar         1 FAD395   0.0000
    33 C7          22.5470    95.2780    49.3980 C.ar         1 FAD395   0.0000
    34 C7M         23.4930    95.8220    48.3470 C.3          1 FAD395   0.0000
    35 C8          23.0120    94.8640    50.7060 C.ar         1 FAD395   0.0000
    36 C8M         24.5130    94.9630    51.0300 C.3          1 FAD395   0.0000
    37 C9          22.1820    94.3760    51.6260 C.ar         1 FAD395   0.0000
    38 C9A         20.8050    94.2310    51.4070 C.ar         1 FAD395   0.0000
    39 N10         19.8340    93.7500    52.3140 N.pl3        1 FAD395   0.0000
    40 C10         18.5230    93.6970    51.9060 C.2          1 FAD395   0.0000
    41 C1'         20.2120    93.5110    53.7640 C.3          1 FAD395   0.0000
    42 C2'         20.5040    94.6610    54.6950 C.3          1 FAD395   0.0000
    43 O2'         21.7420    95.3040    54.2420 O.3          1 FAD395   0.0000
    44 C3'         20.7650    94.3480    56.1440 C.3          1 FAD395   0.0000
    45 O3'         20.4650    93.0120    56.4750 O.3          1 FAD395   0.0000
    46 C4'         20.0850    95.2290    57.1410 C.3          1 FAD395   0.0000
    47 O4'         20.5800    96.5840    57.0720 O.3          1 FAD395   0.0000
    48 C5'         20.4230    94.7350    58.5850 C.3          1 FAD395   0.0000
    49 O5'         21.1490    95.7880    59.2300 O.3          1 FAD395   0.0000
    50 P           21.6090    95.7140    60.6850 P.3          1 FAD395   0.0000
    51 O1P         20.6470    96.2290    61.6160 O.co2        1 FAD395   0.0000
    52 O2P         22.1680    94.5130    61.2270 O.co2        1 FAD395  -1.0000
    53 O3P         22.8300    96.7510    60.9330 O.3          1 FAD395   0.0000
    54 H5B1        25.2867    98.2780    62.3782 H            1 FAD395   0.0000
    55 H5B2        23.9751    97.7770    63.2121 H            1 FAD395   0.0000
    56 H4B         23.5353   100.0195    63.9041 H            1 FAD395   0.0000
    57 H3B         25.0963   100.8628    61.8174 H            1 FAD395   0.0000
    58 H5          24.3231   102.3051    64.1479 H            1 FAD395   0.0000
    59 H2B         27.1170   100.6854    62.9222 H            1 FAD395   0.0000
    60 H7          26.2460   103.0668    64.0955 H            1 FAD395   0.0000
    61 H1B         25.7866   101.3136    65.4056 H            1 FAD395   0.0000
    62 H8A         28.5032    99.2132    63.8294 H            1 FAD395   0.0000
    63 H6A1        31.2483    99.1978    69.3111 H            1 FAD395   0.0000
    64 H6A2        31.3578    98.6549    67.6700 H            1 FAD395   0.0000
    65 H2A         27.3320   101.4507    69.6257 H            1 FAD395   0.0000
    66 H13         14.8717    93.5989    50.8383 H            1 FAD395   0.0000
    67 H14         20.8504    95.4398    48.2670 H            1 FAD395   0.0000
    68 H7M1        24.4245    95.8330    48.7106 H            1 FAD395   0.0000
    69 H7M2        23.4592    95.2398    47.5347 H            1 FAD395   0.0000
    70 H7M3        23.2198    96.7522    48.1020 H            1 FAD395   0.0000
    71 H8M1        24.6743    94.6427    51.9635 H            1 FAD395   0.0000
    72 H8M2        25.0305    94.3961    50.3890 H            1 FAD395   0.0000
    73 H8M3        24.8096    95.9145    50.9481 H            1 FAD395   0.0000
    74 H21         22.5572    94.1011    52.5112 H            1 FAD395   0.0000
    75 H1'1        21.0330    92.9402    53.7525 H            1 FAD395   0.0000
    76 H1'2        19.4563    92.9998    54.1733 H            1 FAD395   0.0000
    77 H2'         19.7561    95.3222    54.6366 H            1 FAD395   0.0000
    78 H25         21.9584    96.0722    54.8445 H            1 FAD395   0.0000
    79 H3'         21.7481    94.4626    56.2871 H            1 FAD395   0.0000
    80 H27         21.2897    92.5594    56.8142 H            1 FAD395   0.0000
    81 H4'         19.0958    95.2155    56.9948 H            1 FAD395   0.0000
    82 H29         20.9742    96.8402    57.9546 H            1 FAD395   0.0000
    83 H5'1        20.9834    93.9079    58.5424 H            1 FAD395   0.0000
    84 H5'2        19.5804    94.5413    59.0875 H            1 FAD395   0.0000
@<TRIPOS>BOND
     1    1    2      ar
     2    1    3      ar
     3    1    4       1
     4    1   53       1
     5    4    5       1
     6    5    6       1
     7    6    7       1
     8    6    8       1
     9    7   12       1
    10    8    9       1
    11    8   10       1
    12   10   11       1
    13   10   12       1
    14   12   13       1
    15   13   14       1
    16   13   22       1
    17   14   15       2
    18   15   16       1
    19   16   17      ar
    20   16   22      ar
    21   17   18       1
    22   17   19      ar
    23   19   20      ar
    24   20   21      ar
    25   21   22      ar
    26   23   24       1
    27   23   40       2
    28   24   25       2
    29   24   26       1
    30   26   27       1
    31   27   28       2
    32   27   29       1
    33   29   30       2
    34   29   40       1
    35   30   31       1
    36   31   32      ar
    37   31   38      ar
    38   32   33      ar
    39   33   34       1
    40   33   35      ar
    41   35   36       1
    42   35   37      ar
    43   37   38      ar
    44   38   39       1
    45   39   40       1
    46   39   41       1
    47   41   42       1
    48   42   43       1
    49   42   44       1
    50   44   45       1
    51   44   46       1
    52   46   47       1
    53   46   48       1
    54   48   49       1
    55   49   50       1
    56   50   51      ar
    57   50   52      ar
    58   50   53       1
    59   48   84       1
    60    5   54       1
    61    5   55       1
    62    6   56       1
    63    8   57       1
    64    9   58       1
    65   10   59       1
    66   11   60       1
    67   12   61       1
    68   14   62       1
    69   18   63       1
    70   18   64       1
    71   20   65       1
    72   26   66       1
    73   32   67       1
    74   34   68       1
    75   34   69       1
    76   34   70       1
    77   36   71       1
    78   36   72       1
    79   36   73       1
    80   37   74       1
    81   41   75       1
    82   41   76       1
    83   42   77       1
    84   43   78       1
    85   44   79       1
    86   45   80       1
    87   46   81       1
    88   47   82       1
    89   48   83       1
@<TRIPOS>SUBSTRUCTURE
     1 FAD395      1 GROUP             4 A     FAD     0 **** FAD A 395
