@<TRIPOS>MOLECULE
4hj4_FMN_1_ligand
   50    52     1     0     0
SMALL
NO_CHARGES


@<TRIPOS>ATOM
     1 N1         -12.1390    -9.2740    13.0650 N.2          1 FMN201   0.0000
     2 C2         -11.8700    -9.8040    11.8170 C.2          1 FMN201   0.0000
     3 O2         -12.2710   -10.9290    11.5180 O.2          1 FMN201   0.0000
     4 N3         -11.1500    -9.0870    10.8900 N.pl3        1 FMN201   0.0000
     5 C4         -10.6980    -7.8270    11.2070 C.2          1 FMN201   0.0000
     6 O4         -10.0580    -7.1690    10.3790 O.2          1 FMN201   0.0000
     7 C4A        -10.9740    -7.2900    12.4550 C.2          1 FMN201   0.0000
     8 N5         -10.5130    -6.0290    12.7680 N.2          1 FMN201   0.0000
     9 C5A        -10.7740    -5.4820    14.0060 C.ar         1 FMN201   0.0000
    10 C6         -10.3200    -4.2140    14.2990 C.ar         1 FMN201   0.0000
    11 C7         -10.5730    -3.6430    15.5340 C.ar         1 FMN201   0.0000
    12 C7M        -10.0380    -2.2610    15.8070 C.3          1 FMN201   0.0000
    13 C8         -11.2950    -4.3630    16.4950 C.ar         1 FMN201   0.0000
    14 C8M        -11.5720    -3.7590    17.8520 C.3          1 FMN201   0.0000
    15 C9         -11.7560    -5.6480    16.1990 C.ar         1 FMN201   0.0000
    16 C9A        -11.4930    -6.1990    14.9500 C.ar         1 FMN201   0.0000
    17 N10        -11.9660    -7.4530    14.6260 N.pl3        1 FMN201   0.0000
    18 C10        -11.6980    -8.0120    13.3870 C.2          1 FMN201   0.0000
    19 C1'        -12.6780    -8.2140    15.6890 C.3          1 FMN201   0.0000
    20 C2'        -14.1730    -8.3240    15.7120 C.3          1 FMN201   0.0000
    21 O2'        -14.7620    -7.0480    15.7380 O.3          1 FMN201   0.0000
    22 C3'        -14.4040    -9.0430    17.0330 C.3          1 FMN201   0.0000
    23 O3'        -13.8040    -8.3100    18.0720 O.3          1 FMN201   0.0000
    24 C4'        -13.7790   -10.4330    17.0690 C.3          1 FMN201   0.0000
    25 O4'        -14.3150   -11.2410    16.0460 O.3          1 FMN201   0.0000
    26 C5'        -14.2020   -11.0630    18.3750 C.3          1 FMN201   0.0000
    27 O5'        -15.5950   -10.8640    18.3380 O.3          1 FMN201   0.0000
    28 P          -16.6710   -11.9240    18.8610 P.3          1 FMN201   0.0000
    29 O1P        -17.5870   -11.1710    19.8000 O.co2        1 FMN201   0.0000
    30 O2P        -17.3400   -12.4320    17.6030 O.co2        1 FMN201  -1.0000
    31 O3P        -16.0530   -13.1000    19.5880 O.co2        1 FMN201  -1.0000
    32 H1         -10.9562    -9.4794     9.9908 H            1 FMN201   0.0000
    33 H2          -9.8031    -3.7020    13.6130 H            1 FMN201   0.0000
    34 H7M1       -10.2963    -1.9801    16.7313 H            1 FMN201   0.0000
    35 H7M2        -9.0412    -2.2676    15.7269 H            1 FMN201   0.0000
    36 H7M3       -10.4214    -1.6181    15.1439 H            1 FMN201   0.0000
    37 H8M1       -12.0949    -4.4076    18.4051 H            1 FMN201   0.0000
    38 H8M2       -10.7063    -3.5537    18.3085 H            1 FMN201   0.0000
    39 H8M3       -12.0982    -2.9160    17.7405 H            1 FMN201   0.0000
    40 H9         -12.2713    -6.1677    16.8804 H            1 FMN201   0.0000
    41 H1'1       -12.4133    -7.7972    16.5586 H            1 FMN201   0.0000
    42 H1'2       -12.3277    -9.1497    15.6476 H            1 FMN201   0.0000
    43 H2'        -14.5096    -8.8640    14.9406 H            1 FMN201   0.0000
    44 H13        -15.7576    -7.1407    15.7531 H            1 FMN201   0.0000
    45 H3'        -15.3866    -9.1165    17.2033 H            1 FMN201   0.0000
    46 H15        -14.3155    -8.4529    18.9193 H            1 FMN201   0.0000
    47 H4'        -12.7827   -10.3810    17.0011 H            1 FMN201   0.0000
    48 H17        -14.7571   -12.0415    16.4506 H            1 FMN201   0.0000
    49 H5'1       -13.7864   -10.5987    19.1571 H            1 FMN201   0.0000
    50 H5'2       -13.9717   -12.0357    18.4039 H            1 FMN201   0.0000
@<TRIPOS>BOND
     1    1    2       1
     2    1   18       2
     3    2    3       2
     4    2    4       1
     5    4    5       1
     6    5    6       2
     7    5    7       1
     8    7    8       2
     9    7   18       1
    10    8    9       1
    11    9   10      ar
    12    9   16      ar
    13   10   11      ar
    14   11   12       1
    15   11   13      ar
    16   13   14       1
    17   13   15      ar
    18   15   16      ar
    19   16   17       1
    20   17   18       1
    21   17   19       1
    22   19   20       1
    23   20   21       1
    24   20   22       1
    25   22   23       1
    26   22   24       1
    27   24   25       1
    28   24   26       1
    29   26   27       1
    30   27   28       1
    31   28   29      ar
    32   28   30      ar
    33   28   31      ar
    34    4   32       1
    35   10   33       1
    36   12   34       1
    37   12   35       1
    38   12   36       1
    39   14   37       1
    40   14   38       1
    41   14   39       1
    42   15   40       1
    43   19   41       1
    44   19   42       1
    45   20   43       1
    46   21   44       1
    47   22   45       1
    48   23   46       1
    49   24   47       1
    50   25   48       1
    51   26   49       1
    52   26   50       1
@<TRIPOS>SUBSTRUCTURE
     1 FMN201      1 GROUP             4 A     FMN     0 **** FMN A 201
