@<TRIPOS>MOLECULE
1xts_GTP_1_ligand
   44    46     1     0     0
SMALL
NO_CHARGES


@<TRIPOS>ATOM
     1 PG         -30.6680    92.1090   -59.9490 P.3          1 GTP179   0.0000
     2 O1G        -30.6750    92.7950   -58.6370 O.co2        1 GTP179   0.0000
     3 O2G        -31.4980    90.7300   -59.9330 O.co2        1 GTP179  -1.0000
     4 O3G        -31.3230    93.0010   -61.1160 O.co2        1 GTP179  -1.0000
     5 O3B        -29.1850    91.7280   -60.4430 O.3          1 GTP179   0.0000
     6 PB         -28.9720    90.7880   -61.7330 P.3          1 GTP179   0.0000
     7 O1B        -29.3660    91.5510   -62.9390 O.co2        1 GTP179   0.0000
     8 O2B        -29.6550    89.5040   -61.4600 O.co2        1 GTP179  -1.0000
     9 O3A        -27.3810    90.5330   -61.7530 O.3          1 GTP179   0.0000
    10 PA         -26.3790    91.5740   -62.4650 P.3          1 GTP179   0.0000
    11 O1A        -26.6700    92.9330   -61.9540 O.co2        1 GTP179   0.0000
    12 O2A        -26.4540    91.3360   -63.9240 O.co2        1 GTP179  -1.0000
    13 O5'        -24.9320    91.1080   -61.9370 O.3          1 GTP179   0.0000
    14 C5'        -24.5650    91.2960   -60.5660 C.3          1 GTP179   0.0000
    15 C4'        -23.0530    91.1480   -60.3760 C.3          1 GTP179   0.0000
    16 O4'        -22.6500    89.8680   -60.8980 O.3          1 GTP179   0.0000
    17 C3'        -22.3250    92.2050   -61.2100 C.3          1 GTP179   0.0000
    18 O3'        -21.0800    92.5500   -60.5950 O.3          1 GTP179   0.0000
    19 C2'        -22.0840    91.4500   -62.5160 C.3          1 GTP179   0.0000
    20 O2'        -20.9760    92.0330   -63.2070 O.3          1 GTP179   0.0000
    21 C1'        -21.6750    90.0970   -61.9300 C.3          1 GTP179   0.0000
    22 N9         -21.7270    89.0180   -62.9450 N.pl3        1 GTP179   0.0000
    23 C8         -22.7920    88.6910   -63.6740 C.2          1 GTP179   0.0000
    24 N7         -22.5020    87.6620   -64.4660 N.2          1 GTP179   0.0000
    25 C5         -21.2340    87.3300   -64.2430 C.2          1 GTP179   0.0000
    26 C6         -20.4010    86.3600   -64.7850 C.2          1 GTP179   0.0000
    27 O6         -20.8190    85.6000   -65.6590 O.2          1 GTP179   0.0000
    28 N1         -19.0750    86.2810   -64.3400 N.pl3        1 GTP179   0.0000
    29 C2         -18.6250    87.1790   -63.3640 C.2          1 GTP179   0.0000
    30 N2         -17.3630    87.1240   -62.9500 N.pl3        1 GTP179   0.0000
    31 N3         -19.4620    88.1000   -62.8610 N.2          1 GTP179   0.0000
    32 C4         -20.7360    88.1940   -63.2730 C.2          1 GTP179   0.0000
    33 H5'1       -25.0332    90.6127   -60.0057 H            1 GTP179   0.0000
    34 H5'2       -24.8427    92.2119   -60.2760 H            1 GTP179   0.0000
    35 H4'        -22.8081    91.2292   -59.4099 H            1 GTP179   0.0000
    36 H3'        -22.8965    93.0126   -61.3553 H            1 GTP179   0.0000
    37 H5         -20.6147    93.2405   -61.1488 H            1 GTP179   0.0000
    38 H2'        -22.9048    91.3914   -63.0842 H            1 GTP179   0.0000
    39 H7         -21.3052    92.7552   -63.8154 H            1 GTP179   0.0000
    40 H1'        -20.7588    90.1547   -61.5334 H            1 GTP179   0.0000
    41 H9         -23.6790    89.1509   -63.6324 H            1 GTP179   0.0000
    42 H10        -18.4563    85.5907   -64.7152 H            1 GTP179   0.0000
    43 H11        -17.0370    87.7631   -62.2533 H            1 GTP179   0.0000
    44 H12        -16.7396    86.4436   -63.3352 H            1 GTP179   0.0000
@<TRIPOS>BOND
     1    1    2      ar
     2    1    3      ar
     3    1    4      ar
     4    1    5       1
     5    5    6       1
     6    6    7      ar
     7    6    8      ar
     8    6    9       1
     9    9   10       1
    10   10   11      ar
    11   10   12      ar
    12   10   13       1
    13   13   14       1
    14   14   15       1
    15   15   16       1
    16   15   17       1
    17   16   21       1
    18   17   18       1
    19   17   19       1
    20   19   20       1
    21   19   21       1
    22   21   22       1
    23   22   23       1
    24   22   32       1
    25   23   24       2
    26   24   25       1
    27   25   26       1
    28   25   32       2
    29   26   27       2
    30   26   28       1
    31   28   29       1
    32   29   30       1
    33   29   31       2
    34   31   32       1
    35   30   44       1
    36   30   43       1
    37   28   42       1
    38   23   41       1
    39   14   33       1
    40   14   34       1
    41   15   35       1
    42   17   36       1
    43   18   37       1
    44   19   38       1
    45   20   39       1
    46   21   40       1
@<TRIPOS>SUBSTRUCTURE
     1 GTP179      1 GROUP             4 A     GTP     0 **** GTP A 179
