@<TRIPOS>MOLECULE
./coach420/1m48/ligand.pdb
 33 35 0 0 0
SMALL
GASTEIGER

@<TRIPOS>ATOM
      1  N33        2.5640   20.9650    0.1020 N.pl3 301  FRG301      0.1298
      2  C31        2.6030   20.1150   -0.9240 C.cat 301  FRG301      0.4954
      3  N32        3.6640   19.3090   -1.0060 N.pl3 301  FRG301      0.1298
      4  N29        1.4640   20.0100   -1.8160 N.pl3 301  FRG301     -0.1885
      5  C30        1.5440   18.8910   -2.7960 C.3   301  FRG301      0.1682
      6  C28        0.7770   21.2590   -2.2630 C.3   301  FRG301      0.1678
      7  C27        0.7920   21.5550   -3.7680 C.3   301  FRG301      0.0406
      8  C26        0.7650   20.3340   -4.6850 C.3   301  FRG301      0.0071
      9  C24        1.7800   19.2790   -4.2560 C.3   301  FRG301      0.0466
     10  C23        1.7010   18.0400   -5.1720 C.3   301  FRG301      0.0901
     11  C22        1.8640   18.4240   -6.6300 C.2   301  FRG301      0.2419
     12  O25        2.9290   18.8790   -7.0090 O.2   301  FRG301     -0.2733
     13  N21        0.8130   18.2520   -7.4550 N.am  301  FRG301     -0.1954
     14  C16        0.9170   18.4640   -8.9030 C.3   301  FRG301      0.1977
     15  C17        0.7970   19.9100   -9.3270 C.2   301  FRG301      0.3374
     16  O19        1.4720   20.3790  -10.2350 O.2   301  FRG301     -0.2482
     17  O18       -0.1090   20.8010   -8.6190 O.3   301  FRG301     -0.4432
     18  C20       -0.4400   22.0880   -9.1400 C.3   301  FRG301      0.2557
     19  C15       -0.0450   17.5560   -9.6420 C.3   301  FRG301      0.0594
     20  C12       -0.0430   16.0920   -9.4220 C.ar  301  FRG301     -0.0198
     21  C13       -1.0430   15.4670   -8.6800 C.ar  301  FRG301     -0.0036
     22  C14       -1.0440   14.0910   -8.5070 C.ar  301  FRG301      0.0079
     23  C11        0.9720   15.3360   -9.9940 C.ar  301  FRG301     -0.0036
     24  C10        0.9930   13.9710   -9.8210 C.ar  301  FRG301      0.0079
     25  C9        -0.0100   13.3710   -9.0720 C.ar  301  FRG301      0.0419
     26  C8         0.0450   11.9300   -8.9320 C.1   301  FRG301     -0.0597
     27  C7         0.1140   10.6380   -8.8620 C.1   301  FRG301     -0.0597
     28  C4         0.1600    9.1950   -8.8240 C.ar  301  FRG301      0.0420
     29  C5        -0.6990    8.5090   -9.6690 C.ar  301  FRG301      0.0082
     30  C6        -0.6930    7.1280   -9.6580 C.ar  301  FRG301      0.0006
     31  C3         1.0160    8.5670   -7.9560 C.ar  301  FRG301      0.0082
     32  C2         1.0230    7.1890   -7.9480 C.ar  301  FRG301      0.0006
     33  C1         0.1680    6.4790   -8.7830 C.ar  301  FRG301      0.0000
@<TRIPOS>BOND
     1     1     2    2
     2     2     4    1
     3     2     3    1
     4     4     5    1
     5     4     6    1
     6     5     9    1
     7     6     7    1
     8     7     8    1
     9     8     9    1
    10     9    10    1
    11    10    11    1
    12    11    13   am
    13    11    12    2
    14    13    14    1
    15    14    19    1
    16    14    15    1
    17    15    16    2
    18    15    17    1
    19    17    18    1
    20    19    20    1
    21    20    23   ar
    22    20    21   ar
    23    21    22   ar
    24    22    25   ar
    25    23    24   ar
    26    24    25   ar
    27    25    26    1
    28    26    27    3
    29    27    28    1
    30    28    29   ar
    31    28    31   ar
    32    29    30   ar
    33    30    33   ar
    34    31    32   ar
    35    32    33   ar
