@<TRIPOS>MOLECULE
3q23_G2P_1_ligand
   46    48     1     0     0
SMALL
NO_CHARGES


@<TRIPOS>ATOM
     1 PG          11.8950   -81.0140   222.9030 P.3          1 G2P1108   0.0000
     2 O1G         11.4740   -82.3970   223.3550 O.co2        1 G2P1108   0.0000
     3 O2G         13.3840   -80.9380   222.6390 O.co2        1 G2P1108  -1.0000
     4 O3G         11.0520   -80.4360   221.7960 O.co2        1 G2P1108  -1.0000
     5 O3B         11.6550   -79.9940   224.1450 O.3          1 G2P1108   0.0000
     6 PB          11.4080   -80.4600   225.6720 P.3          1 G2P1108   0.0000
     7 O1B         10.1190   -81.2550   225.6820 O.co2        1 G2P1108   0.0000
     8 O2B         11.4550   -79.2240   226.5460 O.co2        1 G2P1108  -1.0000
     9 C3A         12.8490   -81.4850   226.0980 C.3          1 G2P1108   0.0000
    10 PA          12.4850   -83.0090   227.0100 P.3          1 G2P1108   0.0000
    11 O1A         13.7930   -83.6820   227.3440 O.co2        1 G2P1108   0.0000
    12 O2A         11.4930   -83.8180   226.2060 O.co2        1 G2P1108  -1.0000
    13 O5'         11.8430   -82.5640   228.4210 O.3          1 G2P1108   0.0000
    14 C5'         10.4380   -82.5200   228.6340 C.3          1 G2P1108   0.0000
    15 C4'         10.1110   -81.6400   229.8290 C.3          1 G2P1108   0.0000
    16 O4'         10.8000   -82.0780   231.0070 O.3          1 G2P1108   0.0000
    17 C3'         10.5690   -80.1980   229.6570 C.3          1 G2P1108   0.0000
    18 O3'          9.7850   -79.4220   228.7420 O.3          1 G2P1108   0.0000
    19 C2'         10.5330   -79.7290   231.1020 C.3          1 G2P1108   0.0000
    20 O2'          9.2080   -79.4040   231.5340 O.3          1 G2P1108   0.0000
    21 C1'         11.0620   -80.9530   231.8490 C.3          1 G2P1108   0.0000
    22 N9          12.5120   -80.6800   232.0080 N.pl3        1 G2P1108   0.0000
    23 C8          13.5230   -81.0120   231.1830 C.2          1 G2P1108   0.0000
    24 N7          14.6810   -80.5120   231.6800 N.2          1 G2P1108   0.0000
    25 C5          14.3780   -79.8470   232.8210 C.2          1 G2P1108   0.0000
    26 C6          15.1180   -79.1390   233.7650 C.2          1 G2P1108   0.0000
    27 O6          16.3580   -79.0060   233.6530 O.2          1 G2P1108   0.0000
    28 N1          14.4800   -78.5860   234.8190 N.pl3        1 G2P1108   0.0000
    29 C2          13.1360   -78.7010   234.9790 C.2          1 G2P1108   0.0000
    30 N2          12.5170   -78.1360   236.0430 N.pl3        1 G2P1108   0.0000
    31 N3          12.4000   -79.3790   234.0820 N.2          1 G2P1108   0.0000
    32 C4          13.0050   -79.9560   233.0100 C.2          1 G2P1108   0.0000
    33 H3A1        13.4655   -80.9314   226.6578 H            1 G2P1108   0.0000
    34 H3A2        13.3087   -81.7383   225.2468 H            1 G2P1108   0.0000
    35 H5'1        10.1014   -83.4460   228.8048 H            1 G2P1108   0.0000
    36 H5'2         9.9927   -82.1484   227.8194 H            1 G2P1108   0.0000
    37 H4'          9.1250   -81.6579   229.9948 H            1 G2P1108   0.0000
    38 H3'         11.5188   -80.1988   229.3441 H            1 G2P1108   0.0000
    39 H7          10.1673   -79.5052   227.8217 H            1 G2P1108   0.0000
    40 H2'         11.1446   -78.9486   231.2319 H            1 G2P1108   0.0000
    41 H9           8.5480   -79.9695   231.0394 H            1 G2P1108   0.0000
    42 H1'         10.6144   -81.0550   232.7374 H            1 G2P1108   0.0000
    43 H11         13.4340   -81.5419   230.3396 H            1 G2P1108   0.0000
    44 H12         15.0103   -78.0792   235.4987 H            1 G2P1108   0.0000
    45 H13         11.5270   -78.2265   236.1516 H            1 G2P1108   0.0000
    46 H14         13.0499   -77.6284   236.7200 H            1 G2P1108   0.0000
@<TRIPOS>BOND
     1    1    2      ar
     2    1    3      ar
     3    1    4      ar
     4    1    5       1
     5    5    6       1
     6    6    7      ar
     7    6    8      ar
     8    6    9       1
     9    9   10       1
    10   10   11      ar
    11   10   12      ar
    12   10   13       1
    13   13   14       1
    14   14   15       1
    15   15   16       1
    16   15   17       1
    17   16   21       1
    18   17   18       1
    19   17   19       1
    20   19   20       1
    21   19   21       1
    22   21   22       1
    23   22   23       1
    24   22   32       1
    25   23   24       2
    26   24   25       1
    27   25   26       1
    28   25   32       2
    29   26   27       2
    30   26   28       1
    31   28   29       1
    32   29   30       1
    33   29   31       2
    34   31   32       1
    35   30   46       1
    36   30   45       1
    37   28   44       1
    38    9   33       1
    39    9   34       1
    40   23   43       1
    41   14   35       1
    42   14   36       1
    43   15   37       1
    44   17   38       1
    45   18   39       1
    46   19   40       1
    47   20   41       1
    48   21   42       1
@<TRIPOS>SUBSTRUCTURE
     1 G2P1108     1 GROUP             4 A     G2P     0 **** G2P A1108
