@<TRIPOS>MOLECULE
3dr7_GPD_3_ligand
   62    65     1     0     0
SMALL
NO_CHARGES


@<TRIPOS>ATOM
     1 N4A          3.8100    23.3650    -9.8850 N.4          1 GPD500   1.0000
     2 C4G          3.4100    22.8940   -11.1810 C.3          1 GPD500   0.0000
     3 C5G          2.0780    23.4450   -11.6280 C.3          1 GPD500   0.0000
     4 C6G          2.0710    24.9660   -11.6320 C.3          1 GPD500   0.0000
     5 O5G          1.9050    22.9760   -12.9490 O.3          1 GPD500   0.0000
     6 C3G          3.4090    21.3810   -11.2740 C.3          1 GPD500   0.0000
     7 C2G          2.0690    20.8690   -11.7600 C.3          1 GPD500   0.0000
     8 O2G          2.1970    19.5100   -12.1150 O.3          1 GPD500   0.0000
     9 C1G          1.5000    21.6330   -12.9590 C.3          1 GPD500   0.0000
    10 O1G          0.0910    21.6510   -12.8520 O.3          1 GPD500   0.0000
    11 P2          -0.8340    22.0140   -14.0850 P.3          1 GPD500   0.0000
    12 O3P         -0.8400    23.4690   -14.3900 O.co2        1 GPD500   0.0000
    13 O4P         -2.1130    21.3950   -13.7010 O.co2        1 GPD500  -1.0000
    14 OPP         -0.0410    21.1950   -15.2230 O.3          1 GPD500   0.0000
    15 P           -0.6930    20.3180   -16.3870 P.3          1 GPD500   0.0000
    16 O1P         -2.0930    20.7610   -16.6450 O.co2        1 GPD500   0.0000
    17 O2P         -0.4170    18.8650   -16.1980 O.co2        1 GPD500  -1.0000
    18 O5'          0.2350    20.7970   -17.6050 O.3          1 GPD500   0.0000
    19 C5'          0.3990    22.1660   -17.9520 C.3          1 GPD500   0.0000
    20 C4'          0.4410    22.3100   -19.4660 C.3          1 GPD500   0.0000
    21 O4'          1.6820    21.7910   -19.9420 O.3          1 GPD500   0.0000
    22 C3'         -0.6550    21.4610   -20.0800 C.3          1 GPD500   0.0000
    23 O3'         -1.0680    22.0090   -21.3300 O.3          1 GPD500   0.0000
    24 C2'          0.0600    20.1460   -20.3240 C.3          1 GPD500   0.0000
    25 O2'         -0.5420    19.4350   -21.3910 O.3          1 GPD500   0.0000
    26 C1'          1.4270    20.6290   -20.7270 C.3          1 GPD500   0.0000
    27 N9           2.4350    19.5610   -20.6210 N.pl3        1 GPD500   0.0000
    28 C8           2.8940    19.0210   -19.4830 C.2          1 GPD500   0.0000
    29 N7           3.7930    18.0890   -19.7730 N.2          1 GPD500   0.0000
    30 C4           3.0380    18.9690   -21.6520 C.2          1 GPD500   0.0000
    31 C5           3.8960    18.0320   -21.1170 C.2          1 GPD500   0.0000
    32 C6           4.6630    17.2520   -21.9680 C.2          1 GPD500   0.0000
    33 O6           5.4520    16.4120   -21.5160 O.2          1 GPD500   0.0000
    34 N3           2.9610    19.1250   -22.9900 N.2          1 GPD500   0.0000
    35 C2           3.7000    18.3510   -23.7970 C.2          1 GPD500   0.0000
    36 N1           4.5580    17.4530   -23.2860 N.pl3        1 GPD500   0.0000
    37 N2           3.6240    18.5060   -25.1280 N.pl3        1 GPD500   0.0000
    38 H4A1         4.3706    22.6693    -9.4359 H            1 GPD500   0.0000
    39 H4A2         4.3405    24.2067    -9.9854 H            1 GPD500   0.0000
    40 H4G          4.0932    23.2238   -11.8325 H            1 GPD500   0.0000
    41 H5G          1.3468    23.0984   -11.0405 H            1 GPD500   0.0000
    42 H6G1         1.1755    25.2944   -11.9325 H            1 GPD500   0.0000
    43 H6G2         2.2570    25.3026   -10.7089 H            1 GPD500   0.0000
    44 H6G3         2.7759    25.3009   -12.2573 H            1 GPD500   0.0000
    45 H3G1         3.5974    20.9975   -10.3699 H            1 GPD500   0.0000
    46 H3G2         4.1212    21.0920   -11.9137 H            1 GPD500   0.0000
    47 H2G          1.4153    20.9362   -11.0062 H            1 GPD500   0.0000
    48 H11          1.3257    19.0427   -11.9647 H            1 GPD500   0.0000
    49 H1G          1.7773    21.1936   -13.8134 H            1 GPD500   0.0000
    50 H5'1         1.2540    22.5077   -17.5618 H            1 GPD500   0.0000
    51 H5'2        -0.3680    22.6951   -17.5890 H            1 GPD500   0.0000
    52 H4'          0.3349    23.2682   -19.7317 H            1 GPD500   0.0000
    53 H3'         -1.4272    21.3490   -19.4546 H            1 GPD500   0.0000
    54 H17         -1.8150    22.6566   -21.1795 H            1 GPD500   0.0000
    55 H2'          0.0991    19.5920   -19.4924 H            1 GPD500   0.0000
    56 H19         -0.0553    18.5732   -21.5338 H            1 GPD500   0.0000
    57 H1'          1.3810    20.9116   -21.6851 H            1 GPD500   0.0000
    58 H21          2.6047    19.2796   -18.5614 H            1 GPD500   0.0000
    59 H22          4.1750    17.9290   -25.7308 H            1 GPD500   0.0000
    60 H23          3.0164    19.1985   -25.5168 H            1 GPD500   0.0000
    61 H4A3         2.9975    23.5470    -9.3311 H            1 GPD500   0.0000
    62 H25          5.1333    16.9208   -23.9072 H            1 GPD500   0.0000
@<TRIPOS>BOND
     1    1    2       1
     2    2    3       1
     3    2    6       1
     4    3    4       1
     5    3    5       1
     6    5    9       1
     7    6    7       1
     8    7    8       1
     9    7    9       1
    10    9   10       1
    11   10   11       1
    12   11   12      ar
    13   11   13      ar
    14   11   14       1
    15   14   15       1
    16   15   16      ar
    17   15   17      ar
    18   15   18       1
    19   18   19       1
    20   19   20       1
    21   20   21       1
    22   20   22       1
    23   21   26       1
    24   22   23       1
    25   22   24       1
    26   24   25       1
    27   24   26       1
    28   26   27       1
    29   27   28       1
    30   27   30       1
    31   28   29       2
    32   29   31       1
    33   30   31       2
    34   30   34       1
    35   31   32       1
    36   32   33       2
    37   32   36       1
    38   34   35       2
    39   35   36       1
    40   35   37       1
    41    1   38       1
    42    1   39       1
    43    2   40       1
    44    3   41       1
    45    4   42       1
    46    4   43       1
    47    4   44       1
    48    6   45       1
    49    6   46       1
    50    7   47       1
    51    8   48       1
    52    9   49       1
    53    1   61       1
    54   37   60       1
    55   19   50       1
    56   19   51       1
    57   20   52       1
    58   22   53       1
    59   23   54       1
    60   24   55       1
    61   25   56       1
    62   26   57       1
    63   28   58       1
    64   37   59       1
    65   36   62       1
@<TRIPOS>SUBSTRUCTURE
     1 GPD500      1 GROUP             4 D     GPD     0 **** GPD D 500
