@<TRIPOS>MOLECULE
4p5f_AR6_1_ligand
   57    60     1     0     0
SMALL
NO_CHARGES


@<TRIPOS>ATOM
     1 N1          -0.2570    45.5490   -12.7660 N.ar         1 AR6503   0.0000
     2 C2          -0.8700    44.8010   -11.8070 C.ar         1 AR6503   0.0000
     3 N3          -0.1890    44.4510   -10.6730 N.ar         1 AR6503   0.0000
     4 C4           1.1000    44.8370   -10.4760 C.ar         1 AR6503   0.0000
     5 C5           1.7470    45.6250   -11.4810 C.ar         1 AR6503   0.0000
     6 C6           1.0230    45.9610   -12.6290 C.ar         1 AR6503   0.0000
     7 N6           1.6300    46.7480   -13.6590 N.pl3        1 AR6503   0.0000
     8 N7           3.0130    45.8640   -11.0460 N.2          1 AR6503   0.0000
     9 C8           3.1890    45.2880    -9.8480 C.2          1 AR6503   0.0000
    10 N9           2.0380    44.6450    -9.4640 N.pl3        1 AR6503   0.0000
    11 PA           5.9870    44.3290    -5.3220 P.3          1 AR6503   0.0000
    12 PB           6.6470    41.5920    -5.1580 P.3          1 AR6503   0.0000
    13 C1'          1.7920    43.9050    -8.2620 C.3          1 AR6503   0.0000
    14 O1A          6.5390    45.5140    -6.0640 O.co2        1 AR6503   0.0000
    15 O1B          7.9410    40.8280    -5.0330 O.co2        1 AR6503   0.0000
    16 C1D          3.5410    38.8840    -8.9810 C.3          1 AR6503   0.0000
    17 O1D          3.5190    37.5000    -9.0430 O.3          1 AR6503   0.0000
    18 C2'          2.7510    42.8180    -8.0670 C.3          1 AR6503   0.0000
    19 O2'          2.4560    41.7370    -8.9800 O.3          1 AR6503   0.0000
    20 O2A          5.9350    44.5630    -3.8270 O.co2        1 AR6503  -1.0000
    21 O2B          5.8820    41.6310    -3.8690 O.co2        1 AR6503  -1.0000
    22 C2D          4.4230    39.4300   -10.0110 C.3          1 AR6503   0.0000
    23 O2D          4.1610    38.7420   -11.2680 O.3          1 AR6503   0.0000
    24 C3'          2.5990    42.4540    -6.6700 C.3          1 AR6503   0.0000
    25 O3'          1.5170    41.4810    -6.5020 O.3          1 AR6503   0.0000
    26 O3A          6.9440    43.0800    -5.6530 O.3          1 AR6503   0.0000
    27 C3D          5.7620    39.1600    -9.4900 C.3          1 AR6503   0.0000
    28 O3D          6.0900    37.7580    -9.6840 O.3          1 AR6503   0.0000
    29 C4'          2.2260    43.6930    -5.9620 C.3          1 AR6503   0.0000
    30 O4'          1.9400    44.6990    -7.0200 O.3          1 AR6503   0.0000
    31 C4D          5.6350    39.3650    -8.0320 C.3          1 AR6503   0.0000
    32 O4D          4.1960    39.3320    -7.7100 O.3          1 AR6503   0.0000
    33 C5'          3.3440    44.0980    -5.0690 C.3          1 AR6503   0.0000
    34 O5'          4.5310    44.0150    -5.8670 O.3          1 AR6503   0.0000
    35 C5D          6.2220    40.6600    -7.5630 C.3          1 AR6503   0.0000
    36 O5D          5.7060    40.8860    -6.2430 O.3          1 AR6503   0.0000
    37 H1          -1.8178    44.5076   -11.9316 H            1 AR6503   0.0000
    38 H2           2.5768    47.0548   -13.5615 H            1 AR6503   0.0000
    39 H3           1.1073    46.9910   -14.4761 H            1 AR6503   0.0000
    40 H4           4.0334    45.3217    -9.3134 H            1 AR6503   0.0000
    41 H1'          0.8685    43.5231    -8.2971 H            1 AR6503   0.0000
    42 H1D          2.6185    39.2615    -9.0616 H            1 AR6503   0.0000
    43 H7           3.8411    37.1223    -8.1749 H            1 AR6503   0.0000
    44 H2'          3.6790    43.1533    -8.2294 H            1 AR6503   0.0000
    45 H9           2.9581    41.8753    -9.8337 H            1 AR6503   0.0000
    46 H2D          4.2775    40.4141   -10.1123 H            1 AR6503   0.0000
    47 H11          4.7600    39.1087   -11.9798 H            1 AR6503   0.0000
    48 H3'          3.4569    42.0891    -6.3082 H            1 AR6503   0.0000
    49 H13          1.4291    41.2440    -5.5345 H            1 AR6503   0.0000
    50 H3D          6.4491    39.7640    -9.8939 H            1 AR6503   0.0000
    51 H15          6.9054    37.6828   -10.2579 H            1 AR6503   0.0000
    52 H4'          1.4021    43.5341    -5.4180 H            1 AR6503   0.0000
    53 H4D          6.0908    38.6118    -7.5577 H            1 AR6503   0.0000
    54 H5'1         3.4065    43.4785    -4.2865 H            1 AR6503   0.0000
    55 H5'2         3.2081    45.0337    -4.7434 H            1 AR6503   0.0000
    56 H5D1         5.9491    41.4041    -8.1728 H            1 AR6503   0.0000
    57 H5D2         7.2198    40.5983    -7.5381 H            1 AR6503   0.0000
@<TRIPOS>BOND
     1    1    2      ar
     2    1    6      ar
     3    2    3      ar
     4    3    4      ar
     5    4    5      ar
     6    4   10       1
     7    5    6      ar
     8    5    8       1
     9    6    7       1
    10    8    9       2
    11    9   10       1
    12   10   13       1
    13   11   14      ar
    14   11   20      ar
    15   11   26       1
    16   11   34       1
    17   12   15      ar
    18   12   21      ar
    19   12   26       1
    20   12   36       1
    21   13   18       1
    22   13   30       1
    23   16   17       1
    24   16   22       1
    25   16   32       1
    26   18   19       1
    27   18   24       1
    28   22   23       1
    29   22   27       1
    30   24   25       1
    31   24   29       1
    32   27   28       1
    33   27   31       1
    34   29   30       1
    35   29   33       1
    36   31   32       1
    37   31   35       1
    38   33   34       1
    39   35   36       1
    40    2   37       1
    41    7   38       1
    42    7   39       1
    43    9   40       1
    44   13   41       1
    45   35   57       1
    46   35   56       1
    47   16   42       1
    48   17   43       1
    49   18   44       1
    50   19   45       1
    51   22   46       1
    52   23   47       1
    53   24   48       1
    54   25   49       1
    55   27   50       1
    56   28   51       1
    57   29   52       1
    58   31   53       1
    59   33   54       1
    60   33   55       1
@<TRIPOS>SUBSTRUCTURE
     1 AR6503      1 GROUP             4 B     AR6     0 **** AR6 B 503
