@<TRIPOS>MOLECULE
2gqr_ADP_1_ligand
   39    41     1     0     0
SMALL
NO_CHARGES


@<TRIPOS>ATOM
     1 PB          31.5200    32.4250    75.3240 P.3          1 ADP238   0.0000
     2 O1B         30.6160    32.3820    74.1470 O.co2        1 ADP238   0.0000
     3 O2B         31.5470    31.1450    76.0760 O.co2        1 ADP238  -1.0000
     4 O3B         31.3170    33.6080    76.1970 O.co2        1 ADP238  -1.0000
     5 PA          33.8870    33.9050    74.3120 P.3          1 ADP238   0.0000
     6 O1A         33.5910    34.2200    72.9060 O.co2        1 ADP238   0.0000
     7 O2A         33.8520    34.8870    75.4200 O.co2        1 ADP238  -1.0000
     8 O3A         32.9970    32.6330    74.7140 O.3          1 ADP238   0.0000
     9 O5'         35.1960    33.1130    74.1840 O.3          1 ADP238   0.0000
    10 C5'         36.4290    32.8200    74.7730 C.3          1 ADP238   0.0000
    11 C4'         36.4930    31.3600    75.1210 C.3          1 ADP238   0.0000
    12 O4'         37.8830    31.0560    75.3960 O.3          1 ADP238   0.0000
    13 C3'         35.7280    31.0090    76.3900 C.3          1 ADP238   0.0000
    14 O3'         35.2880    29.6550    76.3610 O.3          1 ADP238   0.0000
    15 C2'         36.7790    31.2350    77.4650 C.3          1 ADP238   0.0000
    16 O2'         36.5310    30.5140    78.6500 O.3          1 ADP238   0.0000
    17 C1'         38.0390    30.7340    76.7590 C.3          1 ADP238   0.0000
    18 N9          39.2540    31.3920    77.2330 N.pl3        1 ADP238   0.0000
    19 C8          39.3900    32.6880    77.6740 C.2          1 ADP238   0.0000
    20 N7          40.6060    32.9890    78.0580 N.2          1 ADP238   0.0000
    21 C5          41.3190    31.8160    77.8510 C.ar         1 ADP238   0.0000
    22 C6          42.6650    31.4800    78.0700 C.ar         1 ADP238   0.0000
    23 N6          43.5710    32.3320    78.5550 N.pl3        1 ADP238   0.0000
    24 N1          43.0540    30.2210    77.7690 N.ar         1 ADP238   0.0000
    25 C2          42.1440    29.3700    77.2760 C.ar         1 ADP238   0.0000
    26 N3          40.8540    29.5700    77.0220 N.ar         1 ADP238   0.0000
    27 C4          40.5000    30.8270    77.3380 C.ar         1 ADP238   0.0000
    28 H5'1        36.5373    33.3645    75.6047 H            1 ADP238   0.0000
    29 H5'2        37.1640    33.0409    74.1319 H            1 ADP238   0.0000
    30 H4'         36.1636    30.8077    74.3552 H            1 ADP238   0.0000
    31 H3'         34.9537    31.6288    76.5179 H            1 ADP238   0.0000
    32 H5          36.0797    29.0488    76.2853 H            1 ADP238   0.0000
    33 H2'         36.8617    32.2110    77.6663 H            1 ADP238   0.0000
    34 H7          35.9723    31.0684    79.2668 H            1 ADP238   0.0000
    35 H1'         38.1215    29.7435    76.8690 H            1 ADP238   0.0000
    36 H9          38.6317    33.3394    77.6991 H            1 ADP238   0.0000
    37 H10         44.5161    32.0340    78.6893 H            1 ADP238   0.0000
    38 H11         43.3046    33.2683    78.7840 H            1 ADP238   0.0000
    39 H12         42.4837    28.4525    77.0693 H            1 ADP238   0.0000
@<TRIPOS>BOND
     1    1    2      ar
     2    1    3      ar
     3    1    4      ar
     4    1    8       1
     5    5    6      ar
     6    5    7      ar
     7    5    8       1
     8    5    9       1
     9    9   10       1
    10   10   11       1
    11   11   12       1
    12   11   13       1
    13   12   17       1
    14   13   14       1
    15   13   15       1
    16   15   16       1
    17   15   17       1
    18   17   18       1
    19   18   19       1
    20   18   27       1
    21   19   20       2
    22   20   21       1
    23   21   22      ar
    24   21   27      ar
    25   22   23       1
    26   22   24      ar
    27   24   25      ar
    28   25   26      ar
    29   26   27      ar
    30   25   39       1
    31   23   38       1
    32   23   37       1
    33   10   28       1
    34   10   29       1
    35   11   30       1
    36   13   31       1
    37   14   32       1
    38   15   33       1
    39   16   34       1
    40   17   35       1
    41   19   36       1
@<TRIPOS>SUBSTRUCTURE
     1 ADP238      1 GROUP             4 A     ADP     0 **** ADP A 238
