@<TRIPOS>MOLECULE
3nz2_ACO_5_ligand
   85    87     1     0     0
SMALL
NO_CHARGES


@<TRIPOS>ATOM
     1 N1A         49.2600    40.1120    65.3750 N.ar         1 ACO195   0.0000
     2 C2A         50.5060    40.5540    65.1950 C.ar         1 ACO195   0.0000
     3 N3A         51.1710    41.1920    66.1420 N.ar         1 ACO195   0.0000
     4 C4A         50.5990    41.4280    67.3200 C.ar         1 ACO195   0.0000
     5 C5A         49.3070    40.9950    67.5610 C.ar         1 ACO195   0.0000
     6 C6A         48.6480    40.3200    66.5400 C.ar         1 ACO195   0.0000
     7 N6A         47.3370    39.8560    66.7100 N.pl3        1 ACO195   0.0000
     8 N7A         48.9920    41.3600    68.8130 N.2          1 ACO195   0.0000
     9 C8A         50.0380    41.9910    69.3490 C.2          1 ACO195   0.0000
    10 N9A         50.9930    42.0710    68.4380 N.pl3        1 ACO195   0.0000
    11 C1B         52.3320    42.6200    68.6240 C.3          1 ACO195   0.0000
    12 C2B         52.4420    44.0340    69.0890 C.3          1 ACO195   0.0000
    13 O2B         52.6590    44.8370    68.0050 O.3          1 ACO195   0.0000
    14 C3B         53.6370    44.0260    69.8880 C.3          1 ACO195   0.0000
    15 O3B         54.6730    44.3900    69.0170 O.3          1 ACO195   0.0000
    16 P3B         56.1160    44.8340    69.4190 P.3          1 ACO195   0.0000
    17 O7A         57.0420    43.6670    69.2860 O.co2        1 ACO195   0.0000
    18 O8A         56.5840    45.8080    68.4440 O.co2        1 ACO195  -1.0000
    19 O9A         56.1830    45.4030    70.7480 O.co2        1 ACO195  -1.0000
    20 C4B         53.7750    42.6450    70.3400 C.3          1 ACO195   0.0000
    21 O4B         52.8390    41.8510    69.6230 O.3          1 ACO195   0.0000
    22 C5B         53.4820    42.4910    71.7400 C.3          1 ACO195   0.0000
    23 O5B         52.1550    42.2510    72.0840 O.3          1 ACO195   0.0000
    24 P1A         51.4830    42.9740    73.2850 P.3          1 ACO195   0.0000
    25 O1A         52.5500    43.8810    73.8770 O.co2        1 ACO195   0.0000
    26 O2A         50.3050    43.7670    72.8540 O.co2        1 ACO195  -1.0000
    27 O3A         51.0500    42.0520    74.4520 O.3          1 ACO195   0.0000
    28 P2A         51.0160    40.5270    74.5390 P.3          1 ACO195   0.0000
    29 O4A         52.3830    39.9830    74.5160 O.co2        1 ACO195   0.0000
    30 O5A         50.2980    40.1430    75.8070 O.co2        1 ACO195  -1.0000
    31 O6A         50.2600    39.9680    73.2680 O.3          1 ACO195   0.0000
    32 CBP         48.7190    38.2840    72.3280 C.3          1 ACO195   0.0000
    33 CCP         49.1350    39.1030    73.4900 C.3          1 ACO195   0.0000
    34 CDP         49.7480    38.4590    71.1880 C.3          1 ACO195   0.0000
    35 CEP         48.6600    36.8230    72.7420 C.3          1 ACO195   0.0000
    36 CAP         47.3290    38.7740    71.8660 C.3          1 ACO195   0.0000
    37 OAP         47.2720    40.1200    71.4710 O.3          1 ACO195   0.0000
    38 C9P         46.5690    37.9110    70.9380 C.2          1 ACO195   0.0000
    39 O9P         46.7200    37.9680    69.7740 O.2          1 ACO195   0.0000
    40 N8P         45.8220    36.7900    71.5250 N.am         1 ACO195   0.0000
    41 C7P         44.8940    36.0390    70.7280 C.3          1 ACO195   0.0000
    42 C6P         43.6210    35.7200    71.4990 C.3          1 ACO195   0.0000
    43 C5P         42.6980    34.8270    70.8030 C.2          1 ACO195   0.0000
    44 O5P         42.7920    34.6410    69.5960 O.2          1 ACO195   0.0000
    45 N4P         41.5430    34.4810    71.4530 N.am         1 ACO195   0.0000
    46 C3P         40.5660    33.6650    70.8240 C.3          1 ACO195   0.0000
    47 C2P         39.7550    32.8260    71.8260 C.3          1 ACO195   0.0000
    48 S1P         40.6940    31.6570    72.8260 S.3          1 ACO195   0.0000
    49 C           40.0740    30.0290    72.3900 C.2          1 ACO195   0.0000
    50 O           39.2800    29.9070    71.4300 O.2          1 ACO195   0.0000
    51 CH3         40.6870    28.7390    72.9310 C.3          1 ACO195   0.0000
    52 H2A         50.9516    40.3971    64.3136 H            1 ACO195   0.0000
    53 H6A1        46.8630    40.0037    67.5780 H            1 ACO195   0.0000
    54 H6A2        46.8753    39.3771    65.9633 H            1 ACO195   0.0000
    55 H8A         50.0910    42.3442    70.2830 H            1 ACO195   0.0000
    56 H1B         52.8702    42.4932    67.7908 H            1 ACO195   0.0000
    57 H2B         51.6407    44.3202    69.6143 H            1 ACO195   0.0000
    58 H7          53.6425    44.9254    67.8472 H            1 ACO195   0.0000
    59 H3B         53.5668    44.6589    70.6590 H            1 ACO195   0.0000
    60 H4B         54.7026    42.3215    70.1533 H            1 ACO195   0.0000
    61 H5B1        53.7665    43.3309    72.2021 H            1 ACO195   0.0000
    62 H5B2        54.0255    41.7233    72.0795 H            1 ACO195   0.0000
    63 HCP1        48.3579    39.6718    73.7596 H            1 ACO195   0.0000
    64 HCP2        49.3679    38.4808    74.2374 H            1 ACO195   0.0000
    65 HDP1        49.4708    37.9075    70.4012 H            1 ACO195   0.0000
    66 HDP2        49.7901    39.4220    70.9218 H            1 ACO195   0.0000
    67 HDP3        50.6489    38.1607    71.5034 H            1 ACO195   0.0000
    68 HEP1        48.3794    36.2661    71.9603 H            1 ACO195   0.0000
    69 HEP2        49.5631    36.5283    73.0542 H            1 ACO195   0.0000
    70 HEP3        47.9986    36.7132    73.4840 H            1 ACO195   0.0000
    71 HAP         46.7836    38.7532    72.7039 H            1 ACO195   0.0000
    72 H21         47.8963    40.2691    70.7041 H            1 ACO195   0.0000
    73 H8P         45.9610    36.5489    72.4855 H            1 ACO195   0.0000
    74 H7P1        45.3266    35.1821    70.4477 H            1 ACO195   0.0000
    75 H7P2        44.6565    36.5735    69.9169 H            1 ACO195   0.0000
    76 H6P1        43.1443    36.5794    71.6838 H            1 ACO195   0.0000
    77 H6P2        43.8794    35.2895    72.3638 H            1 ACO195   0.0000
    78 H4P         41.3855    34.8081    72.3848 H            1 ACO195   0.0000
    79 H3P1        41.0278    33.0458    70.1889 H            1 ACO195   0.0000
    80 H3P2        39.9364    34.2537    70.3170 H            1 ACO195   0.0000
    81 H2P1        39.0738    32.3075    71.3092 H            1 ACO195   0.0000
    82 H2P2        39.2919    33.4571    72.4483 H            1 ACO195   0.0000
    83 HH31        40.1902    27.9535    72.5620 H            1 ACO195   0.0000
    84 HH32        41.6470    28.6853    72.6562 H            1 ACO195   0.0000
    85 HH33        40.6252    28.7335    73.9291 H            1 ACO195   0.0000
@<TRIPOS>BOND
     1    1    2      ar
     2    1    6      ar
     3    2    3      ar
     4    3    4      ar
     5    4    5      ar
     6    4   10       1
     7    5    6      ar
     8    5    8       1
     9    6    7       1
    10    8    9       2
    11    9   10       1
    12   10   11       1
    13   11   12       1
    14   11   21       1
    15   12   13       1
    16   12   14       1
    17   14   15       1
    18   14   20       1
    19   15   16       1
    20   16   17      ar
    21   16   18      ar
    22   16   19      ar
    23   20   21       1
    24   20   22       1
    25   22   23       1
    26   23   24       1
    27   24   25      ar
    28   24   26      ar
    29   24   27       1
    30   27   28       1
    31   28   29      ar
    32   28   30      ar
    33   28   31       1
    34   31   33       1
    35   32   33       1
    36   32   34       1
    37   32   35       1
    38   32   36       1
    39   36   37       1
    40   36   38       1
    41   38   39       2
    42   38   40      am
    43   40   41       1
    44   41   42       1
    45   42   43       1
    46   43   44       2
    47   43   45      am
    48   45   46       1
    49   46   47       1
    50   47   48       1
    51   48   49       1
    52   49   50       2
    53   49   51       1
    54    2   52       1
    55    7   53       1
    56    7   54       1
    57    9   55       1
    58   11   56       1
    59   12   57       1
    60   13   58       1
    61   14   59       1
    62   51   85       1
    63   51   84       1
    64   20   60       1
    65   22   61       1
    66   22   62       1
    67   51   83       1
    68   47   82       1
    69   33   63       1
    70   33   64       1
    71   34   65       1
    72   34   66       1
    73   34   67       1
    74   35   68       1
    75   35   69       1
    76   35   70       1
    77   36   71       1
    78   37   72       1
    79   40   73       1
    80   41   74       1
    81   41   75       1
    82   42   76       1
    83   42   77       1
    84   45   78       1
    85   46   79       1
    86   46   80       1
    87   47   81       1
@<TRIPOS>SUBSTRUCTURE
     1 ACO195      1 GROUP             4 E     ACO     0 **** ACO E 195
