@<TRIPOS>MOLECULE
4e2b_FMN_1_ligand
   50    52     1     0     0
SMALL
NO_CHARGES


@<TRIPOS>ATOM
     1 N1          24.3110    -4.5950    -0.1260 N.2          1 FMN401   0.0000
     2 C2          24.8150    -3.3430    -0.1900 C.2          1 FMN401   0.0000
     3 O2          25.2990    -2.8160     0.8420 O.2          1 FMN401   0.0000
     4 N3          24.7940    -2.6420    -1.3410 N.pl3        1 FMN401   0.0000
     5 C4          24.3230    -3.1300    -2.5010 C.2          1 FMN401   0.0000
     6 O4          24.3210    -2.4400    -3.5350 O.2          1 FMN401   0.0000
     7 C4A         23.7530    -4.4800    -2.5130 C.2          1 FMN401   0.0000
     8 N5          23.2450    -5.0470    -3.6330 N.2          1 FMN401   0.0000
     9 C5A         22.6880    -6.2810    -3.5790 C.ar         1 FMN401   0.0000
    10 C6          22.1410    -6.8670    -4.7190 C.ar         1 FMN401   0.0000
    11 C7          21.5790    -8.1360    -4.6650 C.ar         1 FMN401   0.0000
    12 C7M         20.9900    -8.7360    -5.9100 C.3          1 FMN401   0.0000
    13 C8          21.5670    -8.8850    -3.3820 C.ar         1 FMN401   0.0000
    14 C8M         20.9810   -10.2690    -3.2880 C.3          1 FMN401   0.0000
    15 C9          22.1160    -8.3020    -2.2510 C.ar         1 FMN401   0.0000
    16 C9A         22.6770    -7.0320    -2.2960 C.ar         1 FMN401   0.0000
    17 N10         23.2410    -6.4530    -1.1470 N.pl3        1 FMN401   0.0000
    18 C10         23.7700    -5.1740    -1.2160 C.2          1 FMN401   0.0000
    19 C1'         23.1910    -7.1260     0.1450 C.3          1 FMN401   0.0000
    20 C2'         21.7760    -6.8160     0.6880 C.3          1 FMN401   0.0000
    21 O2'         21.6070    -5.4290     1.0250 O.3          1 FMN401   0.0000
    22 C3'         21.4510    -7.6240     1.9310 C.3          1 FMN401   0.0000
    23 O3'         22.4440    -7.3300     2.9210 O.3          1 FMN401   0.0000
    24 C4'         21.3960    -9.1270     1.6500 C.3          1 FMN401   0.0000
    25 O4'         20.4860    -9.3960     0.5760 O.3          1 FMN401   0.0000
    26 C5'         21.0150    -9.9260     2.8940 C.3          1 FMN401   0.0000
    27 O5'         19.7190    -9.5700     3.3750 O.3          1 FMN401   0.0000
    28 P           18.4790   -10.5870     3.1640 P.3          1 FMN401   0.0000
    29 O1P         18.8520   -11.8490     3.9130 O.co2        1 FMN401   0.0000
    30 O2P         18.3670   -10.7590     1.6630 O.co2        1 FMN401  -1.0000
    31 O3P         17.3390    -9.8150     3.7740 O.co2        1 FMN401  -1.0000
    32 H1          25.1486    -1.7070    -1.3311 H            1 FMN401   0.0000
    33 H2          22.1533    -6.3682    -5.5856 H            1 FMN401   0.0000
    34 H7M1        20.6298    -9.6457    -5.7034 H            1 FMN401   0.0000
    35 H7M2        20.2497    -8.1522    -6.2433 H            1 FMN401   0.0000
    36 H7M3        21.6984    -8.8095    -6.6120 H            1 FMN401   0.0000
    37 H8M1        21.0660   -10.6039    -2.3496 H            1 FMN401   0.0000
    38 H8M2        20.0152   -10.2402    -3.5455 H            1 FMN401   0.0000
    39 H8M3        21.4728   -10.8819    -3.9065 H            1 FMN401   0.0000
    40 H9          22.1082    -8.8048    -1.3866 H            1 FMN401   0.0000
    41 H1'1        23.8924    -6.7646     0.7593 H            1 FMN401   0.0000
    42 H1'2        23.3196    -8.1116     0.0354 H            1 FMN401   0.0000
    43 H2'         21.1102    -7.0497    -0.0206 H            1 FMN401   0.0000
    44 H13         21.2700    -4.9306     0.2262 H            1 FMN401   0.0000
    45 H3'         20.5595    -7.3316     2.2771 H            1 FMN401   0.0000
    46 H15         22.2511    -7.8519     3.7519 H            1 FMN401   0.0000
    47 H4'         22.3077    -9.4204     1.3624 H            1 FMN401   0.0000
    48 H17         19.5696    -9.5486     0.9459 H            1 FMN401   0.0000
    49 H5'1        21.6874    -9.7473     3.6123 H            1 FMN401   0.0000
    50 H5'2        21.0201   -10.9000     2.6675 H            1 FMN401   0.0000
@<TRIPOS>BOND
     1    1    2       1
     2    1   18       2
     3    2    3       2
     4    2    4       1
     5    4    5       1
     6    5    6       2
     7    5    7       1
     8    7    8       2
     9    7   18       1
    10    8    9       1
    11    9   10      ar
    12    9   16      ar
    13   10   11      ar
    14   11   12       1
    15   11   13      ar
    16   13   14       1
    17   13   15      ar
    18   15   16      ar
    19   16   17       1
    20   17   18       1
    21   17   19       1
    22   19   20       1
    23   20   21       1
    24   20   22       1
    25   22   23       1
    26   22   24       1
    27   24   25       1
    28   24   26       1
    29   26   27       1
    30   27   28       1
    31   28   29      ar
    32   28   30      ar
    33   28   31      ar
    34    4   32       1
    35   10   33       1
    36   12   34       1
    37   12   35       1
    38   12   36       1
    39   14   37       1
    40   14   38       1
    41   14   39       1
    42   15   40       1
    43   19   41       1
    44   19   42       1
    45   20   43       1
    46   21   44       1
    47   22   45       1
    48   23   46       1
    49   24   47       1
    50   25   48       1
    51   26   49       1
    52   26   50       1
@<TRIPOS>SUBSTRUCTURE
     1 FMN401      1 GROUP             4 A     FMN     0 **** FMN A 401
