@<TRIPOS>MOLECULE
3kpf_FAD_2_ligand
   84    89     1     0     0
SMALL
NO_CHARGES


@<TRIPOS>ATOM
     1 PA         -51.4180    14.7260   -12.2640 P.3          1 FAD500   0.0000
     2 O1A        -51.9780    15.9860   -12.8890 O.co2        1 FAD500   0.0000
     3 O2A        -49.9690    14.5010   -12.6560 O.co2        1 FAD500  -1.0000
     4 O5B        -52.3390    13.4350   -12.5920 O.3          1 FAD500   0.0000
     5 C5B        -53.6910    13.5180   -12.9930 C.3          1 FAD500   0.0000
     6 C4B        -53.8410    12.8350   -14.3520 C.3          1 FAD500   0.0000
     7 O4B        -55.2100    12.6530   -14.6860 O.3          1 FAD500   0.0000
     8 C3B        -53.2120    13.6570   -15.4720 C.3          1 FAD500   0.0000
     9 O3B        -52.3550    12.8240   -16.2140 O.3          1 FAD500   0.0000
    10 C2B        -54.3830    14.1080   -16.3180 C.3          1 FAD500   0.0000
    11 O2B        -54.0350    14.1490   -17.6750 O.3          1 FAD500   0.0000
    12 C1B        -55.4390    13.0540   -16.0220 C.3          1 FAD500   0.0000
    13 N9A        -56.8240    13.5370   -16.1700 N.pl3        1 FAD500   0.0000
    14 C8A        -57.2940    14.8110   -15.9880 C.2          1 FAD500   0.0000
    15 N7A        -58.6370    14.7510   -15.9640 N.2          1 FAD500   0.0000
    16 C5A        -59.0290    13.5170   -16.3600 C.ar         1 FAD500   0.0000
    17 C6A        -60.2030    13.0600   -16.9560 C.ar         1 FAD500   0.0000
    18 N6A        -61.3140    13.7890   -16.8870 N.pl3        1 FAD500   0.0000
    19 N1A        -60.2900    11.7410   -17.3590 N.ar         1 FAD500   0.0000
    20 C2A        -59.1800    10.9230   -17.2740 C.ar         1 FAD500   0.0000
    21 N3A        -57.9590    11.4850   -16.9740 N.ar         1 FAD500   0.0000
    22 C4A        -57.8980    12.7150   -16.3990 C.ar         1 FAD500   0.0000
    23 N1         -43.3250    19.3400    -7.7390 N.2          1 FAD500   0.0000
    24 C2         -42.0600    18.8510    -7.5380 C.2          1 FAD500   0.0000
    25 O2         -41.8950    18.0470    -6.6310 O.2          1 FAD500   0.0000
    26 N3         -40.9800    19.5700    -8.0330 N.pl3        1 FAD500   0.0000
    27 C4         -41.1700    20.7120    -8.8000 C.2          1 FAD500   0.0000
    28 O4         -40.1890    21.1930    -9.3680 O.2          1 FAD500   0.0000
    29 C4X        -42.4750    21.1370    -9.1010 C.2          1 FAD500   0.0000
    30 N5         -42.7090    22.0620   -10.1100 N.2          1 FAD500   0.0000
    31 C5X        -43.9700    22.1840   -10.6870 C.ar         1 FAD500   0.0000
    32 C6         -44.2090    23.1430   -11.6770 C.ar         1 FAD500   0.0000
    33 C7         -45.3010    23.0130   -12.5420 C.ar         1 FAD500   0.0000
    34 C7M        -45.4210    23.9510   -13.7060 C.3          1 FAD500   0.0000
    35 C8         -46.2130    21.9700   -12.3430 C.ar         1 FAD500   0.0000
    36 C8M        -47.2550    21.6350   -13.3660 C.3          1 FAD500   0.0000
    37 C9         -46.0920    21.1450   -11.2280 C.ar         1 FAD500   0.0000
    38 C9A        -44.9430    21.2090   -10.4340 C.ar         1 FAD500   0.0000
    39 N10        -44.7290    20.3010    -9.4100 N.pl3        1 FAD500   0.0000
    40 C10        -43.5390    20.3190    -8.6960 C.2          1 FAD500   0.0000
    41 C1'        -45.8950    19.6000    -8.7970 C.3          1 FAD500   0.0000
    42 C2'        -45.9100    18.1490    -9.2430 C.3          1 FAD500   0.0000
    43 O2'        -45.7290    18.0890   -10.6390 O.3          1 FAD500   0.0000
    44 C3'        -47.2460    17.5530    -8.8290 C.3          1 FAD500   0.0000
    45 O3'        -47.3060    17.5690    -7.4220 O.3          1 FAD500   0.0000
    46 C4'        -47.4830    16.1250    -9.2990 C.3          1 FAD500   0.0000
    47 O4'        -46.8630    15.9130   -10.5410 O.3          1 FAD500   0.0000
    48 C5'        -48.9800    15.9080    -9.4580 C.3          1 FAD500   0.0000
    49 O5'        -49.2380    14.5550    -9.7400 O.3          1 FAD500   0.0000
    50 P          -50.7300    13.9630    -9.6360 P.3          1 FAD500   0.0000
    51 O1P        -50.7430    12.4850   -10.0040 O.co2        1 FAD500   0.0000
    52 O2P        -51.2920    14.2060    -8.2530 O.co2        1 FAD500  -1.0000
    53 O3P        -51.5550    14.8660   -10.6750 O.3          1 FAD500   0.0000
    54 H5B1       -53.9619    14.4778   -13.0669 H            1 FAD500   0.0000
    55 H5B2       -54.2706    13.0589   -12.3197 H            1 FAD500   0.0000
    56 H4B        -53.3946    11.9409   -14.3163 H            1 FAD500   0.0000
    57 H3B        -52.7150    14.4422   -15.1027 H            1 FAD500   0.0000
    58 H5         -52.8800    12.0663   -16.6017 H            1 FAD500   0.0000
    59 H2B        -54.6998    15.0072   -16.0163 H            1 FAD500   0.0000
    60 H7         -53.7548    13.2371   -17.9749 H            1 FAD500   0.0000
    61 H1B        -55.2988    12.2707   -16.6277 H            1 FAD500   0.0000
    62 H8A        -56.7383    15.6367   -15.8906 H            1 FAD500   0.0000
    63 H6A1       -62.1555    13.4596   -17.3152 H            1 FAD500   0.0000
    64 H6A2       -61.3074    14.6662   -16.4070 H            1 FAD500   0.0000
    65 H2A        -59.2618     9.9383   -17.4279 H            1 FAD500   0.0000
    66 H13        -40.0502    19.2604    -7.8339 H            1 FAD500   0.0000
    67 H14        -43.5949    23.9271   -11.7671 H            1 FAD500   0.0000
    68 H7M1       -46.2469    23.7331   -14.2260 H            1 FAD500   0.0000
    69 H7M2       -45.4762    24.8918   -13.3716 H            1 FAD500   0.0000
    70 H7M3       -44.6199    23.8536   -14.2966 H            1 FAD500   0.0000
    71 H8M1       -47.8054    20.8656   -13.0416 H            1 FAD500   0.0000
    72 H8M2       -47.8453    22.4287   -13.5128 H            1 FAD500   0.0000
    73 H8M3       -46.8098    21.3871   -14.2264 H            1 FAD500   0.0000
    74 H21        -46.8262    20.5073   -10.9953 H            1 FAD500   0.0000
    75 H1'1       -46.7416    20.0461    -9.0874 H            1 FAD500   0.0000
    76 H1'2       -45.8215    19.6410    -7.8005 H            1 FAD500   0.0000
    77 H2'        -45.1693    17.6534    -8.7894 H            1 FAD500   0.0000
    78 H25        -46.4685    18.5863   -11.0927 H            1 FAD500   0.0000
    79 H3'        -47.9785    18.1324    -9.1864 H            1 FAD500   0.0000
    80 H27        -47.7110    18.4304    -7.1154 H            1 FAD500   0.0000
    81 H4'        -47.1181    15.4825    -8.6251 H            1 FAD500   0.0000
    82 H29        -46.4058    16.7531   -10.8330 H            1 FAD500   0.0000
    83 H5'1       -49.3196    16.4742   -10.2091 H            1 FAD500   0.0000
    84 H5'2       -49.4445    16.1649    -8.6105 H            1 FAD500   0.0000
@<TRIPOS>BOND
     1    1    2      ar
     2    1    3      ar
     3    1    4       1
     4    1   53       1
     5    4    5       1
     6    5    6       1
     7    6    7       1
     8    6    8       1
     9    7   12       1
    10    8    9       1
    11    8   10       1
    12   10   11       1
    13   10   12       1
    14   12   13       1
    15   13   14       1
    16   13   22       1
    17   14   15       2
    18   15   16       1
    19   16   17      ar
    20   16   22      ar
    21   17   18       1
    22   17   19      ar
    23   19   20      ar
    24   20   21      ar
    25   21   22      ar
    26   23   24       1
    27   23   40       2
    28   24   25       2
    29   24   26       1
    30   26   27       1
    31   27   28       2
    32   27   29       1
    33   29   30       2
    34   29   40       1
    35   30   31       1
    36   31   32      ar
    37   31   38      ar
    38   32   33      ar
    39   33   34       1
    40   33   35      ar
    41   35   36       1
    42   35   37      ar
    43   37   38      ar
    44   38   39       1
    45   39   40       1
    46   39   41       1
    47   41   42       1
    48   42   43       1
    49   42   44       1
    50   44   45       1
    51   44   46       1
    52   46   47       1
    53   46   48       1
    54   48   49       1
    55   49   50       1
    56   50   51      ar
    57   50   52      ar
    58   50   53       1
    59   48   84       1
    60    5   54       1
    61    5   55       1
    62    6   56       1
    63    8   57       1
    64    9   58       1
    65   10   59       1
    66   11   60       1
    67   12   61       1
    68   14   62       1
    69   18   63       1
    70   18   64       1
    71   20   65       1
    72   26   66       1
    73   32   67       1
    74   34   68       1
    75   34   69       1
    76   34   70       1
    77   36   71       1
    78   36   72       1
    79   36   73       1
    80   37   74       1
    81   41   75       1
    82   41   76       1
    83   42   77       1
    84   43   78       1
    85   44   79       1
    86   45   80       1
    87   46   81       1
    88   47   82       1
    89   48   83       1
@<TRIPOS>SUBSTRUCTURE
     1 FAD500      1 GROUP             4 B     FAD     0 **** FAD B 500
