@<TRIPOS>MOLECULE
./coach420/1i8z/ligand.pdb
 30 30 0 0 0
SMALL
GASTEIGER

@<TRIPOS>ATOM
      1 ZN         -6.7620   -1.7760   15.2000 Zn    262  ZN262       0.0000
      2  O2        -5.4330    0.7710   18.0390 O.3   555  INL555      0.0000
      3  O3        -7.3270    0.7100   16.7950 O.3   555  INL555      0.0000
      4  N4        -5.4450   -0.5330   16.1380 N.3   555  INL555      0.0000
      5  C5        -5.4080    1.9220   15.8850 C.ar  555  INL555      0.0000
      6  C6        -4.0990    1.9930   15.3380 C.ar  555  INL555      0.0000
      7  C7        -3.9320    3.2050   14.5940 C.ar  555  INL555      0.0000
      8  C8        -5.1610    3.9930   14.6270 C.ar  555  INL555      0.0000
      9  S9        -6.1140    3.1920   15.4520 S.2   555  INL555      0.0000
     10  C10       -2.7850    3.7620   13.8900 C.2   555  INL555      0.0000
     11  C11       -2.7680    5.0980   13.1030 C.2   555  INL555      0.0000
     12  N12       -4.1030    5.8440   13.1700 N.pl3 555  INL555      0.0000
     13  S13       -5.1930    5.3870   14.0850 S.O2  555  INL555      0.0000
     14  O14       -5.0530    6.2980   15.1230 O.2   555  INL555      0.0000
     15  O15       -6.4060    5.5890   13.4820 O.2   555  INL555      0.0000
     16  C16       -1.6680    5.6690   12.2600 C.3   555  INL555      0.0000
     17  C17       -0.9650    8.2270   12.2380 C.3   555  INL555      0.0000
     18  C18       -1.3190    9.6400   12.7770 C.3   555  INL555      0.0000
     19  O19       -1.2940    9.6780   14.3340 O.3   555  INL555      0.0000
     20  C20       -2.1370    8.5850   14.9930 C.3   555  INL555      0.0000
     21  C21       -1.8700    7.1860   14.4570 C.3   555  INL555      0.0000
     22  N22       -1.8960    7.1600   12.8610 N.3   555  INL555      0.0000
     23  C23       -5.2900    7.1760   11.4220 C.ar  555  INL555      0.0000
     24  C24       -4.5910    5.9900   11.8120 C.ar  555  INL555      0.0000
     25  C25       -4.4490    4.9060   10.8600 C.ar  555  INL555      0.0000
     26  C26       -4.9800    4.9620    9.4990 C.ar  555  INL555      0.0000
     27  C27       -5.6710    6.2500    9.2340 C.ar  555  INL555      0.0000
     28  C28       -5.9010    7.3800   10.1620 C.ar  555  INL555      0.0000
     29  O29       -6.6000    8.4870    9.8150 O.3   555  INL555      0.0000
     30  C30       -6.5270    9.9610   10.5910 C.3   555  INL555      0.0000
@<TRIPOS>BOND
     1     1     4    1
     2     5     6   ar
     3     5     9   ar
     4     6     7   ar
     5     7    10    1
     6     7     8   ar
     7     8    13    1
     8     8     9   ar
     9    10    11    2
    10    11    16    1
    11    11    12    1
    12    12    24    1
    13    12    13    1
    14    13    15    2
    15    13    14    2
    16    16    22    1
    17    17    18    1
    18    17    22    1
    19    18    19    1
    20    19    20    1
    21    20    21    1
    22    21    22    1
    23    23    28   ar
    24    23    24   ar
    25    24    25   ar
    26    25    26   ar
    27    26    27   ar
    28    27    28   ar
    29    28    29    1
    30    29    30    1
