@<TRIPOS>MOLECULE
3f8c_HT1_1_ligand
   63    68     1     0     0
SMALL
NO_CHARGES


@<TRIPOS>ATOM
     1 C1           0.4840    -5.5480     6.5570 C.ar         1 HT1127   0.0000
     2 O1           0.7220    -6.3420     7.6430 O.3          1 HT1127   0.0000
     3 C2          -0.4650    -5.9340     5.6170 C.ar         1 HT1127   0.0000
     4 C3          -0.7220    -5.1370     4.5030 C.ar         1 HT1127   0.0000
     5 C4          -0.0260    -3.9470     4.3270 C.ar         1 HT1127   0.0000
     6 C5           0.9300    -3.5470     5.2760 C.ar         1 HT1127   0.0000
     7 C6           1.1830    -4.3500     6.3930 C.ar         1 HT1127   0.0000
     8 C7          -0.3020    -3.1560     3.2080 C.2          1 HT1127   0.0000
     9 N1          -1.2750    -3.3980     2.3060 N.2          1 HT1127   0.0000
    10 C8          -1.2430    -2.4460     1.3790 C.ar         1 HT1127   0.0000
    11 C9          -0.2010    -1.5710     1.7390 C.ar         1 HT1127   0.0000
    12 N2           0.3470    -2.0340     2.8620 N.pl3        1 HT1127   0.0000
    13 C10          0.0830    -0.4560     0.9600 C.ar         1 HT1127   0.0000
    14 C11         -0.6730    -0.2160    -0.1790 C.ar         1 HT1127   0.0000
    15 C12         -1.7200    -1.0750    -0.5440 C.ar         1 HT1127   0.0000
    16 C13         -2.0160    -2.2180     0.2240 C.ar         1 HT1127   0.0000
    17 C14         -2.4340    -0.7910    -1.7120 C.2          1 HT1127   0.0000
    18 N3          -3.3220    -1.5990    -2.3110 N.2          1 HT1127   0.0000
    19 C15         -3.7740    -0.9840    -3.4100 C.ar         1 HT1127   0.0000
    20 C16         -3.1170     0.2450    -3.4950 C.ar         1 HT1127   0.0000
    21 N4          -2.3010     0.3310    -2.4470 N.pl3        1 HT1127   0.0000
    22 C17         -3.3780     1.1110    -4.5570 C.ar         1 HT1127   0.0000
    23 C18         -4.3080     0.7500    -5.5410 C.ar         1 HT1127   0.0000
    24 C19         -4.9830    -0.4710    -5.4610 C.ar         1 HT1127   0.0000
    25 C20         -4.7050    -1.3500    -4.3940 C.ar         1 HT1127   0.0000
    26 N5          -5.8540    -0.8280    -6.4380 N.pl3        1 HT1127   0.0000
    27 C21         -6.9910     0.0960    -6.6140 C.3          1 HT1127   0.0000
    28 C22         -7.8240    -0.3520    -7.8430 C.3          1 HT1127   0.0000
    29 N6          -8.2720    -1.7610    -7.6920 N.4          1 HT1127   1.0000
    30 C23         -7.1160    -2.6500    -7.4690 C.3          1 HT1127   0.0000
    31 C24         -6.3590    -2.1870    -6.2140 C.3          1 HT1127   0.0000
    32 C25         -8.9830    -2.2170    -8.8960 C.3          1 HT1127   0.0000
    33 C26          0.0120    -7.5840     7.5280 C.3          1 HT1127   0.0000
    34 C27         -0.1730    -8.1910     8.9250 C.3          1 HT1127   0.0000
    35 H1          -0.9669    -6.7900     5.7412 H            1 HT1127   0.0000
    36 H2          -1.4062    -5.4210     3.8313 H            1 HT1127   0.0000
    37 H3           1.4289    -2.6892     5.1529 H            1 HT1127   0.0000
    38 H4           1.8614    -4.0676     7.0712 H            1 HT1127   0.0000
    39 H5           0.8229     0.1658     1.2168 H            1 HT1127   0.0000
    40 H6          -0.4683     0.5808    -0.7475 H            1 HT1127   0.0000
    41 H7          -2.7485    -2.8449    -0.0412 H            1 HT1127   0.0000
    42 H8          -2.9019     1.9884    -4.6160 H            1 HT1127   0.0000
    43 H9          -4.4897     1.3695    -6.3047 H            1 HT1127   0.0000
    44 H10         -5.1708    -2.2332    -4.3386 H            1 HT1127   0.0000
    45 H11         -6.6486     1.0238    -6.7619 H            1 HT1127   0.0000
    46 H12         -7.5658     0.0792    -5.7959 H            1 HT1127   0.0000
    47 H13         -7.2619    -0.2732    -8.6663 H            1 HT1127   0.0000
    48 H14         -8.6257     0.2395    -7.9288 H            1 HT1127   0.0000
    49 H15         -6.5065    -2.6114    -8.2608 H            1 HT1127   0.0000
    50 H16         -7.4357    -3.5887    -7.3398 H            1 HT1127   0.0000
    51 H17         -6.9779    -2.1899    -5.4285 H            1 HT1127   0.0000
    52 H18         -5.5929    -2.8049    -6.0370 H            1 HT1127   0.0000
    53 H19         -9.2744    -3.1655    -8.7719 H            1 HT1127   0.0000
    54 H20         -9.7848    -1.6392    -9.0485 H            1 HT1127   0.0000
    55 H21         -8.3732    -2.1564    -9.6862 H            1 HT1127   0.0000
    56 H22          0.5342    -8.2159     6.9553 H            1 HT1127   0.0000
    57 H23         -0.8831    -7.4203     7.1133 H            1 HT1127   0.0000
    58 H24         -0.6675    -9.0569     8.8494 H            1 HT1127   0.0000
    59 H25          0.7226    -8.3536     9.3390 H            1 HT1127   0.0000
    60 H26         -0.6947    -7.5581     9.4970 H            1 HT1127   0.0000
    61 H27          1.1083    -1.6181     3.3595 H            1 HT1127   0.0000
    62 H28         -1.6929     1.0974    -2.2402 H            1 HT1127   0.0000
    63 H29         -8.8878    -1.8244    -6.9066 H            1 HT1127   0.0000
@<TRIPOS>BOND
     1    1    2       1
     2    1    3      ar
     3    1    7      ar
     4    2   33       1
     5    3    4      ar
     6    4    5      ar
     7    5    6      ar
     8    5    8       1
     9    6    7      ar
    10    8    9       2
    11    8   12       1
    12    9   10       1
    13   10   11      ar
    14   10   16      ar
    15   11   12       1
    16   11   13      ar
    17   13   14      ar
    18   14   15      ar
    19   15   16      ar
    20   15   17       1
    21   17   18       2
    22   17   21       1
    23   18   19       1
    24   19   20      ar
    25   19   25      ar
    26   20   21       1
    27   20   22      ar
    28   22   23      ar
    29   23   24      ar
    30   24   25      ar
    31   24   26       1
    32   26   27       1
    33   26   31       1
    34   27   28       1
    35   28   29       1
    36   29   30       1
    37   29   32       1
    38   30   31       1
    39   33   34       1
    40    3   35       1
    41    4   36       1
    42    6   37       1
    43    7   38       1
    44   34   60       1
    45   13   39       1
    46   14   40       1
    47   16   41       1
    48   12   61       1
    49   22   42       1
    50   23   43       1
    51   25   44       1
    52   27   45       1
    53   27   46       1
    54   28   47       1
    55   28   48       1
    56   30   49       1
    57   30   50       1
    58   31   51       1
    59   31   52       1
    60   32   53       1
    61   32   54       1
    62   32   55       1
    63   33   56       1
    64   33   57       1
    65   34   58       1
    66   34   59       1
    67   21   62       1
    68   29   63       1
@<TRIPOS>SUBSTRUCTURE
     1 HT1127      1 GROUP             4 A     HT1     0 **** HT1 A 127
