@<TRIPOS>MOLECULE
4nks_2M2_2_ligand
   49    52     1     0     0
SMALL
NO_CHARGES


@<TRIPOS>ATOM
     1 C1          32.0040     2.7200    20.2210 C.3          1 2M2801   0.0000
     2 C2          31.0970     2.9200    21.4130 C.2          1 2M2801   0.0000
     3 C3          31.2650     2.4650    22.7540 C.2          1 2M2801   0.0000
     4 C4          30.1740     2.9480    23.4170 C.2          1 2M2801   0.0000
     5 C5          29.7940     2.7880    24.8620 C.3          1 2M2801   0.0000
     6 N6          30.7280     1.8590    25.5010 N.pl3        1 2M2801   0.0000
     7 C7          30.4430     0.5180    25.4710 C.ar         1 2M2801   0.0000
     8 N8          31.1490    -0.3180    26.2110 N.ar         1 2M2801   0.0000
     9 C9          30.8940    -1.6420    26.2060 C.ar         1 2M2801   0.0000
    10 C10         29.8690    -2.1380    25.4150 C.ar         1 2M2801   0.0000
    11 C11         29.1540    -1.1940    24.6560 C.ar         1 2M2801   0.0000
    12 N12         28.1160    -1.6260    23.8920 N.pl3        1 2M2801   0.0000
    13 C13         27.4530    -1.0090    22.8510 C.2          1 2M2801   0.0000
    14 C14         27.3910     0.3410    22.4370 C.2          1 2M2801   0.0000
    15 C15         26.5830     0.3360    21.3460 C.2          1 2M2801   0.0000
    16 C16         26.1430     1.4590    20.4440 C.3          1 2M2801   0.0000
    17 C17         26.1650     2.7610    21.2060 C.3          1 2M2801   0.0000
    18 C18         25.4240     3.7460    20.3560 C.ar         1 2M2801   0.0000
    19 C19         26.0670     4.2860    19.2630 C.ar         1 2M2801   0.0000
    20 C20         25.3930     5.1770    18.4700 C.ar         1 2M2801   0.0000
    21 C21         24.0890     5.5220    18.7570 C.ar         1 2M2801   0.0000
    22 C22         23.4410     4.9930    19.8550 C.ar         1 2M2801   0.0000
    23 C23         24.1130     4.0970    20.6790 C.ar         1 2M2801   0.0000
    24 N24         26.1690    -0.9250    21.1080 N.pl3        1 2M2801   0.0000
    25 N26         26.7260    -1.7520    22.0660 N.2          1 2M2801   0.0000
    26 N27         29.4460     0.0870    24.7090 N.ar         1 2M2801   0.0000
    27 O28         29.4350     3.5970    22.5010 O.2          1 2M2801   0.0000
    28 N29         29.9830     3.5820    21.4030 N.2          1 2M2801   0.0000
    29 H1          31.6035     3.1637    19.4193 H            1 2M2801   0.0000
    30 H2          32.8993     3.1223    20.4122 H            1 2M2801   0.0000
    31 H3          32.1093     1.7417    20.0427 H            1 2M2801   0.0000
    32 H4          32.0137     1.9157    23.1251 H            1 2M2801   0.0000
    33 H5          28.8642     2.4254    24.9259 H            1 2M2801   0.0000
    34 H6          29.8379     3.6757    25.3204 H            1 2M2801   0.0000
    35 H7          31.5560     2.1952    25.9497 H            1 2M2801   0.0000
    36 H8          31.4405    -2.2620    26.7690 H            1 2M2801   0.0000
    37 H9          29.6501    -3.1133    25.3857 H            1 2M2801   0.0000
    38 H10         27.7782    -2.5388    24.1216 H            1 2M2801   0.0000
    39 H11         27.8435     1.1281    22.8562 H            1 2M2801   0.0000
    40 H12         25.2145     1.2798    20.1187 H            1 2M2801   0.0000
    41 H13         26.7640     1.5206    19.6626 H            1 2M2801   0.0000
    42 H14         27.1070     3.0644    21.3492 H            1 2M2801   0.0000
    43 H15         25.7111     2.6541    22.0906 H            1 2M2801   0.0000
    44 H16         27.0108     4.0314    19.0521 H            1 2M2801   0.0000
    45 H17         25.8500     5.5802    17.6772 H            1 2M2801   0.0000
    46 H18         23.6063     6.1642    18.1615 H            1 2M2801   0.0000
    47 H19         22.4963     5.2520    20.0561 H            1 2M2801   0.0000
    48 H20         23.6658     3.7122    21.4864 H            1 2M2801   0.0000
    49 H21         25.5633    -1.2127    20.3662 H            1 2M2801   0.0000
@<TRIPOS>BOND
     1    1    2       1
     2    2    3       1
     3    2   28       2
     4    3    4       2
     5    4    5       1
     6    4   27       1
     7    5    6       1
     8    6    7       1
     9    7    8      ar
    10    7   26      ar
    11    8    9      ar
    12    9   10      ar
    13   10   11      ar
    14   11   12       1
    15   11   26      ar
    16   12   13       1
    17   13   14       1
    18   13   25       2
    19   14   15       2
    20   15   16       1
    21   15   24       1
    22   16   17       1
    23   17   18       1
    24   18   19      ar
    25   18   23      ar
    26   19   20      ar
    27   20   21      ar
    28   21   22      ar
    29   22   23      ar
    30   24   25       1
    31   27   28       1
    32    1   29       1
    33    1   30       1
    34    1   31       1
    35    3   32       1
    36    5   33       1
    37    5   34       1
    38    6   35       1
    39    9   36       1
    40   10   37       1
    41   12   38       1
    42   14   39       1
    43   16   40       1
    44   16   41       1
    45   17   42       1
    46   17   43       1
    47   19   44       1
    48   20   45       1
    49   21   46       1
    50   22   47       1
    51   23   48       1
    52   24   49       1
@<TRIPOS>SUBSTRUCTURE
     1 2M2801      1 GROUP             4 B     2M2     0 **** 2M2 B 801
