@<TRIPOS>MOLECULE
5eb5_FAD_4_ligand
   84    89     1     0     0
SMALL
NO_CHARGES


@<TRIPOS>ATOM
     1 PA          16.2500    42.3770    47.0480 P.3          1 FAD601   0.0000
     2 O1A         16.8280    42.9660    45.8200 O.co2        1 FAD601   0.0000
     3 O2A         15.2460    41.2940    46.9480 O.co2        1 FAD601  -1.0000
     4 O5B         17.5050    41.8920    47.9090 O.3          1 FAD601   0.0000
     5 C5B         17.3830    41.3200    49.2060 C.3          1 FAD601   0.0000
     6 C4B         18.6810    40.5940    49.5620 C.3          1 FAD601   0.0000
     7 O4B         18.5270    40.0540    50.8850 O.3          1 FAD601   0.0000
     8 C3B         18.8920    39.3970    48.6250 C.3          1 FAD601   0.0000
     9 O3B         20.1830    39.5260    48.0190 O.3          1 FAD601   0.0000
    10 C2B         18.8080    38.1810    49.5540 C.3          1 FAD601   0.0000
    11 O2B         19.7320    37.1640    49.1620 O.3          1 FAD601   0.0000
    12 C1B         19.2100    38.7910    50.8960 C.3          1 FAD601   0.0000
    13 N9A         18.6910    38.1130    52.1180 N.pl3        1 FAD601   0.0000
    14 C8A         17.4430    37.6730    52.3200 C.2          1 FAD601   0.0000
    15 N7A         17.3450    37.1370    53.5360 N.2          1 FAD601   0.0000
    16 C5A         18.5330    37.2420    54.1210 C.ar         1 FAD601   0.0000
    17 C6A         19.0330    36.8680    55.3670 C.ar         1 FAD601   0.0000
    18 N6A         18.2520    36.2670    56.2590 N.pl3        1 FAD601   0.0000
    19 N1A         20.3220    37.1280    55.6540 N.ar         1 FAD601   0.0000
    20 C2A         21.1220    37.7310    54.7770 C.ar         1 FAD601   0.0000
    21 N3A         20.6760    38.0970    53.5780 N.ar         1 FAD601   0.0000
    22 C4A         19.3910    37.8710    53.2240 C.ar         1 FAD601   0.0000
    23 N1          11.8230    45.6020    38.7090 N.2          1 FAD601   0.0000
    24 C2          11.9970    46.6140    37.7570 C.2          1 FAD601   0.0000
    25 O2          11.9710    47.7930    38.0950 O.2          1 FAD601   0.0000
    26 N3          12.1990    46.2790    36.4130 N.pl3        1 FAD601   0.0000
    27 C4          12.2280    44.9280    36.0300 C.2          1 FAD601   0.0000
    28 O4          12.4070    44.6520    34.8460 O.2          1 FAD601   0.0000
    29 C4X         12.0530    43.9180    36.9820 C.2          1 FAD601   0.0000
    30 N5          12.0770    42.5700    36.5890 N.2          1 FAD601   0.0000
    31 C5X         12.1850    41.5560    37.5500 C.ar         1 FAD601   0.0000
    32 C6          12.5010    40.2620    37.1350 C.ar         1 FAD601   0.0000
    33 C7          12.6300    39.2300    38.0650 C.ar         1 FAD601   0.0000
    34 C7M         12.9760    37.8280    37.5320 C.3          1 FAD601   0.0000
    35 C8          12.4460    39.5110    39.4330 C.ar         1 FAD601   0.0000
    36 C8M         12.5650    38.4210    40.5130 C.3          1 FAD601   0.0000
    37 C9          12.1290    40.8150    39.8390 C.ar         1 FAD601   0.0000
    38 C9A         11.9990    41.8540    38.9080 C.ar         1 FAD601   0.0000
    39 N10         11.6800    43.1950    39.2920 N.pl3        1 FAD601   0.0000
    40 C10         11.8500    44.2410    38.3310 C.2          1 FAD601   0.0000
    41 C1'         11.1270    43.4780    40.6670 C.3          1 FAD601   0.0000
    42 C2'         12.0180    44.3450    41.5920 C.3          1 FAD601   0.0000
    43 O2'         13.3600    44.4160    41.0780 O.3          1 FAD601   0.0000
    44 C3'         12.0160    43.8390    43.0550 C.3          1 FAD601   0.0000
    45 O3'         10.6740    43.8380    43.5790 O.3          1 FAD601   0.0000
    46 C4'         12.9360    44.6740    43.9720 C.3          1 FAD601   0.0000
    47 O4'         14.2740    44.6860    43.4510 O.3          1 FAD601   0.0000
    48 C5'         12.9490    44.1350    45.4080 C.3          1 FAD601   0.0000
    49 O5'         14.2300    44.2990    46.0170 O.3          1 FAD601   0.0000
    50 P           14.4130    44.4930    47.6040 P.3          1 FAD601   0.0000
    51 O1P         14.8310    45.8920    47.8600 O.co2        1 FAD601   0.0000
    52 O2P         13.2470    43.9380    48.3260 O.co2        1 FAD601  -1.0000
    53 O3P         15.6770    43.5600    47.9840 O.3          1 FAD601   0.0000
    54 H5B1        16.6234    40.6697    49.2142 H            1 FAD601   0.0000
    55 H5B2        17.2102    42.0429    49.8750 H            1 FAD601   0.0000
    56 H4B         19.4606    41.2190    49.5216 H            1 FAD601   0.0000
    57 H3B         18.1753    39.3613    47.9285 H            1 FAD601   0.0000
    58 H5          20.8858    39.5339    48.7303 H            1 FAD601   0.0000
    59 H2B         17.8753    37.8221    49.5896 H            1 FAD601   0.0000
    60 H7          20.6628    37.5278    49.1973 H            1 FAD601   0.0000
    61 H1B         20.2003    38.9190    50.9498 H            1 FAD601   0.0000
    62 H8A         16.6964    37.7369    51.6578 H            1 FAD601   0.0000
    63 H6A1        18.6216    36.0031    57.1499 H            1 FAD601   0.0000
    64 H6A2        17.2948    36.0787    56.0391 H            1 FAD601   0.0000
    65 H2A         22.0741    37.9119    55.0236 H            1 FAD601   0.0000
    66 H13         12.3220    46.9980    35.7289 H            1 FAD601   0.0000
    67 H14         12.6362    40.0725    36.1625 H            1 FAD601   0.0000
    68 H7M1        13.0384    37.1867    38.2967 H            1 FAD601   0.0000
    69 H7M2        12.2617    37.5257    36.9009 H            1 FAD601   0.0000
    70 H7M3        13.8527    37.8608    37.0521 H            1 FAD601   0.0000
    71 H8M1        12.4000    38.8242    41.4131 H            1 FAD601   0.0000
    72 H8M2        11.8891    37.7047    40.3396 H            1 FAD601   0.0000
    73 H8M3        13.4833    38.0259    40.4880 H            1 FAD601   0.0000
    74 H21         11.9932    41.0071    40.8109 H            1 FAD601   0.0000
    75 H1'1        10.9756    42.6007    41.1225 H            1 FAD601   0.0000
    76 H1'2        10.2527    43.9501    40.5540 H            1 FAD601   0.0000
    77 H2'         11.6436    45.2723    41.5914 H            1 FAD601   0.0000
    78 H25         14.0025    44.5215    41.8370 H            1 FAD601   0.0000
    79 H3'         12.3499    42.8964    43.0570 H            1 FAD601   0.0000
    80 H27         10.0418    44.1659    42.8770 H            1 FAD601   0.0000
    81 H4'         12.5954    45.6140    43.9902 H            1 FAD601   0.0000
    82 H29         14.8608    45.2289    44.0518 H            1 FAD601   0.0000
    83 H5'1        12.7191    43.1619    45.3919 H            1 FAD601   0.0000
    84 H5'2        12.2673    44.6297    45.9469 H            1 FAD601   0.0000
@<TRIPOS>BOND
     1    1    2      ar
     2    1    3      ar
     3    1    4       1
     4    1   53       1
     5    4    5       1
     6    5    6       1
     7    6    7       1
     8    6    8       1
     9    7   12       1
    10    8    9       1
    11    8   10       1
    12   10   11       1
    13   10   12       1
    14   12   13       1
    15   13   14       1
    16   13   22       1
    17   14   15       2
    18   15   16       1
    19   16   17      ar
    20   16   22      ar
    21   17   18       1
    22   17   19      ar
    23   19   20      ar
    24   20   21      ar
    25   21   22      ar
    26   23   24       1
    27   23   40       2
    28   24   25       2
    29   24   26       1
    30   26   27       1
    31   27   28       2
    32   27   29       1
    33   29   30       2
    34   29   40       1
    35   30   31       1
    36   31   32      ar
    37   31   38      ar
    38   32   33      ar
    39   33   34       1
    40   33   35      ar
    41   35   36       1
    42   35   37      ar
    43   37   38      ar
    44   38   39       1
    45   39   40       1
    46   39   41       1
    47   41   42       1
    48   42   43       1
    49   42   44       1
    50   44   45       1
    51   44   46       1
    52   46   47       1
    53   46   48       1
    54   48   49       1
    55   49   50       1
    56   50   51      ar
    57   50   52      ar
    58   50   53       1
    59   48   84       1
    60    5   54       1
    61    5   55       1
    62    6   56       1
    63    8   57       1
    64    9   58       1
    65   10   59       1
    66   11   60       1
    67   12   61       1
    68   14   62       1
    69   18   63       1
    70   18   64       1
    71   20   65       1
    72   26   66       1
    73   32   67       1
    74   34   68       1
    75   34   69       1
    76   34   70       1
    77   36   71       1
    78   36   72       1
    79   36   73       1
    80   37   74       1
    81   41   75       1
    82   41   76       1
    83   42   77       1
    84   43   78       1
    85   44   79       1
    86   45   80       1
    87   46   81       1
    88   47   82       1
    89   48   83       1
@<TRIPOS>SUBSTRUCTURE
     1 FAD601      1 GROUP             4 B     FAD     0 **** FAD B 601
