@<TRIPOS>MOLECULE
4uck_SAM_2_ligand
   50    52     1     0     0
SMALL
NO_CHARGES


@<TRIPOS>ATOM
     1 N           23.2050    -8.9520     5.3300 N.4          1 SAM2409   1.0000
     2 CA          24.0350    -8.4900     6.4580 C.3          1 SAM2409   0.0000
     3 C           24.1310    -6.9340     6.5900 C.2          1 SAM2409   0.0000
     4 O           24.9030    -6.4910     7.4650 O.co2        1 SAM2409   0.0000
     5 OXT         23.4180    -6.2420     5.8340 O.co2        1 SAM2409  -1.0000
     6 CB          25.4740    -9.0110     6.3540 C.3          1 SAM2409   0.0000
     7 CG          25.5590   -10.4560     6.8910 C.3          1 SAM2409   0.0000
     8 SD          27.2730   -10.8630     7.1080 S.3          1 SAM2409   1.0000
     9 CE          27.7940   -11.2430     5.4600 C.3          1 SAM2409   0.0000
    10 C5'         27.2320   -12.5150     7.7930 C.3          1 SAM2409   0.0000
    11 C4'         26.6910   -12.6020     9.2120 C.3          1 SAM2409   0.0000
    12 O4'         26.3350   -13.9770     9.4540 O.3          1 SAM2409   0.0000
    13 C3'         27.6830   -12.1970    10.3090 C.3          1 SAM2409   0.0000
    14 O3'         27.1640   -11.1240    11.0860 O.3          1 SAM2409   0.0000
    15 C2'         27.8890   -13.4830    11.1250 C.3          1 SAM2409   0.0000
    16 O2'         27.9700   -13.2420    12.5260 O.3          1 SAM2409   0.0000
    17 C1'         26.6250   -14.2710    10.7990 C.3          1 SAM2409   0.0000
    18 N9          26.7250   -15.7190    10.9480 N.pl3        1 SAM2409   0.0000
    19 C8          27.8200   -16.5170    10.7390 C.2          1 SAM2409   0.0000
    20 N7          27.6190   -17.7840    11.0130 N.2          1 SAM2409   0.0000
    21 C5          26.2950   -17.8240    11.4270 C.ar         1 SAM2409   0.0000
    22 C6          25.4760   -18.8730    11.8940 C.ar         1 SAM2409   0.0000
    23 N6          25.9050   -20.1220    12.0760 N.pl3        1 SAM2409   0.0000
    24 N1          24.1960   -18.5750    12.2210 N.ar         1 SAM2409   0.0000
    25 C2          23.7770   -17.3090    12.1030 C.ar         1 SAM2409   0.0000
    26 N3          24.4630   -16.2350    11.6990 N.ar         1 SAM2409   0.0000
    27 C4          25.7270   -16.5610    11.3750 C.ar         1 SAM2409   0.0000
    28 H1          23.7627    -9.5036     4.7098 H            1 SAM2409   0.0000
    29 H2          22.4476    -9.5046     5.6778 H            1 SAM2409   0.0000
    30 HA          23.6365    -8.8481     7.3024 H            1 SAM2409   0.0000
    31 HB1         26.0778    -8.4228     6.8920 H            1 SAM2409   0.0000
    32 HB2         25.7617    -8.9972     5.3964 H            1 SAM2409   0.0000
    33 HG1         25.1411   -11.0861     6.2365 H            1 SAM2409   0.0000
    34 HG2         25.0816   -10.5207     7.7673 H            1 SAM2409   0.0000
    35 HE1         28.7629   -11.4906     5.4654 H            1 SAM2409   0.0000
    36 HE2         27.2561   -12.0093     5.1087 H            1 SAM2409   0.0000
    37 HE3         27.6575   -10.4438     4.8746 H            1 SAM2409   0.0000
    38 H5'1        28.1648   -12.8755     7.7927 H            1 SAM2409   0.0000
    39 H5'2        26.6554   -13.0819     7.2046 H            1 SAM2409   0.0000
    40 H4'         25.8715   -12.0337     9.2855 H            1 SAM2409   0.0000
    41 H3'         28.5495   -11.9214     9.8927 H            1 SAM2409   0.0000
    42 H15         27.0885   -11.4102    12.0412 H            1 SAM2409   0.0000
    43 H2'         28.6999   -13.9740    10.8065 H            1 SAM2409   0.0000
    44 H17         28.8553   -13.5572    12.8678 H            1 SAM2409   0.0000
    45 H1'         25.8773   -13.9367    11.3727 H            1 SAM2409   0.0000
    46 H19         28.6948   -16.1643    10.4069 H            1 SAM2409   0.0000
    47 H20         25.2753   -20.8233    12.4101 H            1 SAM2409   0.0000
    48 H21         26.8565   -20.3576    11.8784 H            1 SAM2409   0.0000
    49 H22         22.8222   -17.1445    12.3504 H            1 SAM2409   0.0000
    50 H23         22.8419    -8.1611     4.8375 H            1 SAM2409   0.0000
@<TRIPOS>BOND
     1    1    2       1
     2    2    3       1
     3    2    6       1
     4    3    4      ar
     5    3    5      ar
     6    6    7       1
     7    7    8       1
     8    8    9       1
     9    8   10       1
    10   10   11       1
    11   11   12       1
    12   11   13       1
    13   12   17       1
    14   13   14       1
    15   13   15       1
    16   15   16       1
    17   15   17       1
    18   17   18       1
    19   18   19       1
    20   18   27       1
    21   19   20       2
    22   20   21       1
    23   21   22      ar
    24   21   27      ar
    25   22   23       1
    26   22   24      ar
    27   24   25      ar
    28   25   26      ar
    29   26   27      ar
    30    1   28       1
    31    1   29       1
    32    2   30       1
    33    1   50       1
    34    6   31       1
    35    6   32       1
    36    7   33       1
    37    7   34       1
    38    9   35       1
    39    9   36       1
    40    9   37       1
    41   10   38       1
    42   10   39       1
    43   11   40       1
    44   13   41       1
    45   14   42       1
    46   15   43       1
    47   16   44       1
    48   17   45       1
    49   19   46       1
    50   23   47       1
    51   23   48       1
    52   25   49       1
@<TRIPOS>SUBSTRUCTURE
     1 SAM2409     1 GROUP             4 B     SAM     0 **** SAM B2409
