@<TRIPOS>MOLECULE
4oed_DHT_1_ligand
   51    54     1     0     0
SMALL
NO_CHARGES


@<TRIPOS>ATOM
     1 C1         -27.3910     5.0730    -4.2960 C.3          1 DHT1002   0.0000
     2 C2         -26.5340     6.3340    -4.4010 C.3          1 DHT1002   0.0000
     3 C3         -25.0830     6.1910    -3.9290 C.2          1 DHT1002   0.0000
     4 O3         -24.5660     7.1390    -3.3820 O.2          1 DHT1002   0.0000
     5 C4         -24.3210     4.9220    -4.1760 C.3          1 DHT1002   0.0000
     6 C5         -25.2560     3.7260    -3.8690 C.3          1 DHT1002   0.0000
     7 C6         -24.4810     2.3860    -4.0310 C.3          1 DHT1002   0.0000
     8 C7         -25.3700     1.1980    -3.6290 C.3          1 DHT1002   0.0000
     9 C8         -26.7850     1.2410    -4.2760 C.3          1 DHT1002   0.0000
    10 C9         -27.4950     2.5910    -4.0830 C.3          1 DHT1002   0.0000
    11 C10        -26.6520     3.7750    -4.5910 C.3          1 DHT1002   0.0000
    12 C11        -28.9680     2.5980    -4.5910 C.3          1 DHT1002   0.0000
    13 C12        -29.8240     1.4240    -4.0730 C.3          1 DHT1002   0.0000
    14 C13        -29.0970     0.0970    -4.2660 C.3          1 DHT1002   0.0000
    15 C14        -27.6810     0.1700    -3.6730 C.3          1 DHT1002   0.0000
    16 C15        -27.1750    -1.2710    -3.6680 C.3          1 DHT1002   0.0000
    17 C16        -28.4520    -2.0680    -3.3600 C.3          1 DHT1002   0.0000
    18 C17        -29.6460    -1.0860    -3.4650 C.3          1 DHT1002   0.0000
    19 O17        -30.8360    -1.6940    -4.0090 O.3          1 DHT1002   0.0000
    20 C18        -29.1020    -0.2360    -5.7600 C.3          1 DHT1002   0.0000
    21 C19        -26.5150     3.7280    -6.1160 C.3          1 DHT1002   0.0000
    22 H1         -28.1472     5.1554    -4.9452 H            1 DHT1002   0.0000
    23 H2         -27.7545     5.0200    -3.3659 H            1 DHT1002   0.0000
    24 H3         -26.9676     7.0472    -3.8502 H            1 DHT1002   0.0000
    25 H4         -26.5189     6.6165    -5.3601 H            1 DHT1002   0.0000
    26 H5         -23.5198     4.8869    -3.5786 H            1 DHT1002   0.0000
    27 H6         -24.0267     4.8847    -5.1310 H            1 DHT1002   0.0000
    28 H7         -25.4614     3.7956    -2.8928 H            1 DHT1002   0.0000
    29 H8         -23.6696     2.4024    -3.4467 H            1 DHT1002   0.0000
    30 H9         -24.2023     2.2803    -4.9856 H            1 DHT1002   0.0000
    31 H10        -25.4754     1.2027    -2.6346 H            1 DHT1002   0.0000
    32 H11        -24.9171     0.3526    -3.9122 H            1 DHT1002   0.0000
    33 H12        -26.6933     1.0658    -5.2562 H            1 DHT1002   0.0000
    34 H13        -27.5570     2.7171    -3.0929 H            1 DHT1002   0.0000
    35 H14        -28.9548     2.5590    -5.5902 H            1 DHT1002   0.0000
    36 H15        -29.3968     3.4520    -4.2964 H            1 DHT1002   0.0000
    37 H16        -30.6877     1.4009    -4.5765 H            1 DHT1002   0.0000
    38 H17        -30.0091     1.5578    -3.0994 H            1 DHT1002   0.0000
    39 H18        -27.7994     0.4216    -2.7124 H            1 DHT1002   0.0000
    40 H19        -26.4828    -1.4089    -2.9596 H            1 DHT1002   0.0000
    41 H20        -26.7962    -1.5245    -4.5581 H            1 DHT1002   0.0000
    42 H21        -28.4029    -2.4493    -2.4368 H            1 DHT1002   0.0000
    43 H22        -28.5601    -2.8099    -4.0217 H            1 DHT1002   0.0000
    44 H23        -29.8597    -0.7614    -2.5436 H            1 DHT1002   0.0000
    45 H24        -31.5680    -1.0140    -4.0519 H            1 DHT1002   0.0000
    46 H25        -28.6292    -1.1044    -5.9095 H            1 DHT1002   0.0000
    47 H26        -30.0459    -0.3106    -6.0817 H            1 DHT1002   0.0000
    48 H27        -28.6341     0.4895    -6.2648 H            1 DHT1002   0.0000
    49 H28        -26.0339     2.8926    -6.3819 H            1 DHT1002   0.0000
    50 H29        -27.4240     3.7361    -6.5327 H            1 DHT1002   0.0000
    51 H30        -25.9977     4.5246    -6.4289 H            1 DHT1002   0.0000
@<TRIPOS>BOND
     1    1    2       1
     2    1   11       1
     3    2    3       1
     4    3    4       2
     5    3    5       1
     6    5    6       1
     7    6    7       1
     8    6   11       1
     9    7    8       1
    10    8    9       1
    11    9   10       1
    12    9   15       1
    13   10   11       1
    14   10   12       1
    15   11   21       1
    16   12   13       1
    17   13   14       1
    18   14   15       1
    19   14   18       1
    20   14   20       1
    21   15   16       1
    22   16   17       1
    23   17   18       1
    24   18   19       1
    25    1   22       1
    26    1   23       1
    27    2   24       1
    28    2   25       1
    29    5   26       1
    30    5   27       1
    31    6   28       1
    32    7   29       1
    33    7   30       1
    34    8   31       1
    35    8   32       1
    36    9   33       1
    37   10   34       1
    38   12   35       1
    39   12   36       1
    40   13   37       1
    41   13   38       1
    42   15   39       1
    43   16   40       1
    44   16   41       1
    45   17   42       1
    46   17   43       1
    47   18   44       1
    48   19   45       1
    49   20   46       1
    50   20   47       1
    51   20   48       1
    52   21   49       1
    53   21   50       1
    54   21   51       1
@<TRIPOS>SUBSTRUCTURE
     1 DHT1002     1 GROUP             4 A     DHT     0 **** DHT A1002
