@<TRIPOS>MOLECULE
4fnc_HMU_1_ligand
   15    15     1     0     0
SMALL
NO_CHARGES


@<TRIPOS>ATOM
     1 N1         161.0090   -67.6750   350.9960 N.pl3        1 HMU401   0.0000
     2 C2         160.5570   -67.7240   349.6110 C.2          1 HMU401   0.0000
     3 O2         160.3140   -66.6640   349.0340 O.2          1 HMU401   0.0000
     4 N3         160.3940   -69.0050   348.9250 N.pl3        1 HMU401  -1.0000
     5 C4         160.6780   -70.2280   349.6070 C.2          1 HMU401   0.0000
     6 O3         162.0330   -71.3700   352.9780 O.3          1 HMU401   0.0000
     7 O4         160.5370   -71.2960   349.0300 O.2          1 HMU401   0.0000
     8 C5         161.1380   -70.1880   351.0050 C.2          1 HMU401   0.0000
     9 CM5        161.4450   -71.4570   351.7330 C.3          1 HMU401   0.0000
    10 C6         161.2990   -68.8940   351.6840 C.2          1 HMU401   0.0000
    11 H1         161.1153   -66.7960   351.4609 H            1 HMU401   0.0000
    12 H2         162.9118   -70.8993   352.8994 H            1 HMU401   0.0000
    13 HM51       160.5821   -71.9495   351.8467 H            1 HMU401   0.0000
    14 HM52       162.0594   -71.9907   351.1519 H            1 HMU401   0.0000
    15 H5         161.6133   -68.8664   352.6329 H            1 HMU401   0.0000
@<TRIPOS>BOND
     1    1    2       1
     2    1   10       1
     3    2    3       2
     4    2    4       1
     5    4    5       1
     6    5    7       2
     7    5    8       1
     8    6    9       1
     9    8    9       1
    10    8   10       2
    11    1   11       1
    12   10   15       1
    13    6   12       1
    14    9   13       1
    15    9   14       1
@<TRIPOS>SUBSTRUCTURE
     1 HMU401      1 GROUP             4 A     HMU     0 **** HMU A 401
