@<TRIPOS>MOLECULE
2vvl_FAD_4_ligand
   84    89     1     0     0
SMALL
NO_CHARGES


@<TRIPOS>ATOM
     1 PA           2.3880    45.6230   121.0640 P.3          1 FAD600   0.0000
     2 O1A          1.9300    44.3060   121.5500 O.co2        1 FAD600   0.0000
     3 O2A          3.1910    45.7300   119.8220 O.co2        1 FAD600  -1.0000
     4 O5B          1.0650    46.5250   121.0550 O.3          1 FAD600   0.0000
     5 C5B          0.9240    47.7790   120.4780 C.3          1 FAD600   0.0000
     6 C4B          0.1730    47.6640   119.1490 C.3          1 FAD600   0.0000
     7 O4B         -0.3390    48.9780   118.6260 O.3          1 FAD600   0.0000
     8 C3B         -1.1140    46.9200   118.8490 C.3          1 FAD600   0.0000
     9 O3B         -1.1840    45.5370   119.1410 O.3          1 FAD600   0.0000
    10 C2B         -0.7750    47.0740   117.3960 C.3          1 FAD600   0.0000
    11 O2B         -1.5960    46.2710   116.5630 O.3          1 FAD600   0.0000
    12 C1B         -1.1470    48.5470   117.4800 C.3          1 FAD600   0.0000
    13 N9A         -0.8170    49.3560   116.3270 N.pl3        1 FAD600   0.0000
    14 C8A          0.3010    49.3400   115.6010 C.2          1 FAD600   0.0000
    15 N7A          0.1850    50.2460   114.6380 N.2          1 FAD600   0.0000
    16 C5A         -1.0040    50.8360   114.7630 C.ar         1 FAD600   0.0000
    17 C6A         -1.6760    51.8400   114.0690 C.ar         1 FAD600   0.0000
    18 N6A         -1.1060    52.4200   113.0270 N.pl3        1 FAD600   0.0000
    19 N1A         -2.9100    52.1980   114.4720 N.ar         1 FAD600   0.0000
    20 C2A         -3.4940    51.6190   115.5120 C.ar         1 FAD600   0.0000
    21 N3A         -2.8810    50.6640   116.1900 N.ar         1 FAD600   0.0000
    22 C4A         -1.6440    50.2650   115.8390 C.ar         1 FAD600   0.0000
    23 N1           7.5920    38.6760   126.0380 N.2          1 FAD600   0.0000
    24 C2           7.5210    37.9130   127.1840 C.2          1 FAD600   0.0000
    25 O2           7.2000    38.4420   128.2430 O.2          1 FAD600   0.0000
    26 N3           7.8000    36.5520   127.1190 N.pl3        1 FAD600   0.0000
    27 C4           8.1610    35.9730   125.8990 C.2          1 FAD600   0.0000
    28 O4           8.3960    34.7690   125.8770 O.2          1 FAD600   0.0000
    29 C4X          8.2540    36.7420   124.7390 C.2          1 FAD600   0.0000
    30 N5           8.6580    36.2050   123.4850 N.2          1 FAD600   0.0000
    31 C5X          8.3340    36.8920   122.3060 C.ar         1 FAD600   0.0000
    32 C6           8.3530    36.2280   121.0800 C.ar         1 FAD600   0.0000
    33 C7           7.9770    36.9150   119.9150 C.ar         1 FAD600   0.0000
    34 C7M          8.0030    36.2130   118.5570 C.3          1 FAD600   0.0000
    35 C8           7.5840    38.2470   119.9990 C.ar         1 FAD600   0.0000
    36 C8M          7.1590    39.0020   118.7490 C.3          1 FAD600   0.0000
    37 C9           7.5830    38.9120   121.2290 C.ar         1 FAD600   0.0000
    38 C9A          7.9560    38.2380   122.3940 C.ar         1 FAD600   0.0000
    39 N10          7.9680    38.8830   123.6750 N.pl3        1 FAD600   0.0000
    40 C10          7.9710    38.0970   124.8280 C.2          1 FAD600   0.0000
    41 C1'          7.7750    40.3580   123.8430 C.3          1 FAD600   0.0000
    42 C2'          6.4350    40.8930   123.2940 C.3          1 FAD600   0.0000
    43 O2'          5.3510    40.0970   123.7060 O.3          1 FAD600   0.0000
    44 C3'          6.2090    42.4200   123.5390 C.3          1 FAD600   0.0000
    45 O3'          7.2580    42.9930   124.3140 O.3          1 FAD600   0.0000
    46 C4'          4.8750    42.8770   124.1320 C.3          1 FAD600   0.0000
    47 O4'          3.7660    42.0810   123.7250 O.3          1 FAD600   0.0000
    48 C5'          4.6480    44.2550   123.5850 C.3          1 FAD600   0.0000
    49 O5'          3.4410    44.7950   124.0410 O.3          1 FAD600   0.0000
    50 P            3.1860    46.3630   123.7040 P.3          1 FAD600   0.0000
    51 O1P          1.6970    46.6360   124.2140 O.co2        1 FAD600   0.0000
    52 O2P          4.2140    47.2510   124.3090 O.co2        1 FAD600  -1.0000
    53 O3P          3.2840    46.4530   122.1220 O.3          1 FAD600   0.0000
    54 H5B1         1.8290    48.1714   120.3138 H            1 FAD600   0.0000
    55 H5B2         0.4108    48.3726   121.0978 H            1 FAD600   0.0000
    56 H4B          0.8421    47.3412   118.4797 H            1 FAD600   0.0000
    57 H3B         -1.9345    47.4236   119.1195 H            1 FAD600   0.0000
    58 H5          -0.5908    45.3301   119.9190 H            1 FAD600   0.0000
    59 H2B          0.1991    46.9372   117.2159 H            1 FAD600   0.0000
    60 H7          -2.5533    46.5324   116.6868 H            1 FAD600   0.0000
    61 H1B         -2.1192    48.6408   117.6946 H            1 FAD600   0.0000
    62 H8A          1.0914    48.7472   115.7555 H            1 FAD600   0.0000
    63 H6A1        -1.5891    53.1405   112.5295 H            1 FAD600   0.0000
    64 H6A2        -0.1916    52.1383   112.7361 H            1 FAD600   0.0000
    65 H2A         -4.4107    51.9087   115.7873 H            1 FAD600   0.0000
    66 H13          7.7425    35.9888   127.9433 H            1 FAD600   0.0000
    67 H14          8.6325    35.2691   121.0310 H            1 FAD600   0.0000
    68 H7M1         7.7061    36.8508   117.8463 H            1 FAD600   0.0000
    69 H7M2         8.9331    35.9034   118.3596 H            1 FAD600   0.0000
    70 H7M3         7.3868    35.4257   118.5769 H            1 FAD600   0.0000
    71 H8M1         6.9114    39.9394   118.9938 H            1 FAD600   0.0000
    72 H8M2         7.9156    39.0170   118.0953 H            1 FAD600   0.0000
    73 H8M3         6.3706    38.5460   118.3360 H            1 FAD600   0.0000
    74 H21          7.3141    39.8741   121.2747 H            1 FAD600   0.0000
    75 H1'1         8.5181    40.8269   123.3655 H            1 FAD600   0.0000
    76 H1'2         7.8199    40.5700   124.8192 H            1 FAD600   0.0000
    77 H2'          6.4876    40.7841   122.3013 H            1 FAD600   0.0000
    78 H25          4.5307    40.6639   123.7810 H            1 FAD600   0.0000
    79 H3'          6.2687    42.8517   122.6390 H            1 FAD600   0.0000
    80 H27          6.8790    43.3765   125.1562 H            1 FAD600   0.0000
    81 H4'          4.9320    42.9061   125.1299 H            1 FAD600   0.0000
    82 H29          2.9304    42.4330   124.1468 H            1 FAD600   0.0000
    83 H5'1         4.6266    44.2087   122.5863 H            1 FAD600   0.0000
    84 H5'2         5.3994    44.8477   123.8752 H            1 FAD600   0.0000
@<TRIPOS>BOND
     1    1    2      ar
     2    1    3      ar
     3    1    4       1
     4    1   53       1
     5    4    5       1
     6    5    6       1
     7    6    7       1
     8    6    8       1
     9    7   12       1
    10    8    9       1
    11    8   10       1
    12   10   11       1
    13   10   12       1
    14   12   13       1
    15   13   14       1
    16   13   22       1
    17   14   15       2
    18   15   16       1
    19   16   17      ar
    20   16   22      ar
    21   17   18       1
    22   17   19      ar
    23   19   20      ar
    24   20   21      ar
    25   21   22      ar
    26   23   24       1
    27   23   40       2
    28   24   25       2
    29   24   26       1
    30   26   27       1
    31   27   28       2
    32   27   29       1
    33   29   30       2
    34   29   40       1
    35   30   31       1
    36   31   32      ar
    37   31   38      ar
    38   32   33      ar
    39   33   34       1
    40   33   35      ar
    41   35   36       1
    42   35   37      ar
    43   37   38      ar
    44   38   39       1
    45   39   40       1
    46   39   41       1
    47   41   42       1
    48   42   43       1
    49   42   44       1
    50   44   45       1
    51   44   46       1
    52   46   47       1
    53   46   48       1
    54   48   49       1
    55   49   50       1
    56   50   51      ar
    57   50   52      ar
    58   50   53       1
    59   48   84       1
    60    5   54       1
    61    5   55       1
    62    6   56       1
    63    8   57       1
    64    9   58       1
    65   10   59       1
    66   11   60       1
    67   12   61       1
    68   14   62       1
    69   18   63       1
    70   18   64       1
    71   20   65       1
    72   26   66       1
    73   32   67       1
    74   34   68       1
    75   34   69       1
    76   34   70       1
    77   36   71       1
    78   36   72       1
    79   36   73       1
    80   37   74       1
    81   41   75       1
    82   41   76       1
    83   42   77       1
    84   43   78       1
    85   44   79       1
    86   45   80       1
    87   46   81       1
    88   47   82       1
    89   48   83       1
@<TRIPOS>SUBSTRUCTURE
     1 FAD600      1 GROUP             4 D     FAD     0 **** FAD D 600
