@<TRIPOS>MOLECULE
2jgb_MGT_1_ligand
   48    50     1     0     0
SMALL
NO_CHARGES


@<TRIPOS>ATOM
     1 PG         -20.6980    12.4530    14.5740 P.3          1 MGT1000   0.0000
     2 O1G        -19.7590    13.5900    14.8960 O.co2        1 MGT1000   0.0000
     3 O2G        -22.0000    12.8770    13.9440 O.co2        1 MGT1000  -1.0000
     4 O3G        -20.0510    11.2510    13.8960 O.co2        1 MGT1000  -1.0000
     5 O3B        -21.2530    11.9220    16.0080 O.3          1 MGT1000   0.0000
     6 PB         -20.5910    11.1150    17.2510 P.3          1 MGT1000   0.0000
     7 O1B        -20.6840    12.0240    18.4670 O.co2        1 MGT1000   0.0000
     8 O2B        -21.2450     9.7610    17.3060 O.co2        1 MGT1000  -1.0000
     9 O3A        -19.0210    10.9690    16.9150 O.3          1 MGT1000   0.0000
    10 PA         -18.0620     9.7910    17.4830 P.3          1 MGT1000   0.0000
    11 O1A        -18.2620     9.4580    18.9450 O.co2        1 MGT1000   0.0000
    12 O2A        -18.1520     8.6920    16.4610 O.co2        1 MGT1000  -1.0000
    13 O5'        -16.6180    10.4950    17.3720 O.3          1 MGT1000   0.0000
    14 C5'        -16.2820    11.5130    18.3220 C.3          1 MGT1000   0.0000
    15 C4'        -15.6310    12.7120    17.6350 C.3          1 MGT1000   0.0000
    16 O4'        -14.3940    12.2800    17.0460 O.3          1 MGT1000   0.0000
    17 C3'        -16.5010    13.3140    16.5410 C.3          1 MGT1000   0.0000
    18 O3'        -16.3730    14.7430    16.4970 O.3          1 MGT1000   0.0000
    19 C2'        -15.8780    12.7920    15.2770 C.3          1 MGT1000   0.0000
    20 O2'        -15.9640    13.7170    14.1990 O.3          1 MGT1000   0.0000
    21 C1'        -14.4260    12.5530    15.6520 C.3          1 MGT1000   0.0000
    22 N9         -13.9450    11.3860    14.8900 N.2          1 MGT1000   1.0000
    23 C8         -14.6380    10.2730    14.5150 C.2          1 MGT1000   0.0000
    24 N7         -13.8490     9.4120    13.8260 N.pl3        1 MGT1000   0.0000
    25 CM7        -14.2830     8.1050    13.2650 C.3          1 MGT1000   0.0000
    26 C5         -12.6520     9.9970    13.7670 C.2          1 MGT1000   0.0000
    27 C6         -11.3700     9.6040    13.1670 C.2          1 MGT1000   0.0000
    28 O6         -11.2770     8.5290    12.5540 O.2          1 MGT1000   0.0000
    29 N1         -10.3340    10.4620    13.2980 N.pl3        1 MGT1000   0.0000
    30 C2         -10.4470    11.6410    13.9580 C.2          1 MGT1000   0.0000
    31 N2          -9.3820    12.4660    14.0850 N.pl3        1 MGT1000   0.0000
    32 N3         -11.5960    12.0480    14.5350 N.2          1 MGT1000   0.0000
    33 C4         -12.7030    11.2820    14.4630 C.2          1 MGT1000   0.0000
    34 H5'1       -15.6445    11.1355    18.9937 H            1 MGT1000   0.0000
    35 H5'2       -17.1149    11.8148    18.7858 H            1 MGT1000   0.0000
    36 H4'        -15.4375    13.4142    18.3202 H            1 MGT1000   0.0000
    37 H3'        -17.4558    13.0299    16.6284 H            1 MGT1000   0.0000
    38 H5         -16.6543    15.1301    17.3751 H            1 MGT1000   0.0000
    39 H2'        -16.3086    11.9275    15.0179 H            1 MGT1000   0.0000
    40 H7         -16.4318    14.5454    14.5071 H            1 MGT1000   0.0000
    41 H1'        -13.8736    13.3595    15.4413 H            1 MGT1000   0.0000
    42 H9         -15.6032    10.1126    14.7214 H            1 MGT1000   0.0000
    43 HM71       -13.5109     7.6671    12.8044 H            1 MGT1000   0.0000
    44 HM72       -14.6074     7.5158    14.0050 H            1 MGT1000   0.0000
    45 HM73       -15.0225     8.2532    12.6083 H            1 MGT1000   0.0000
    46 H13         -9.4524    10.2185    12.8936 H            1 MGT1000   0.0000
    47 H14         -9.4768    13.3332    14.5739 H            1 MGT1000   0.0000
    48 H15         -8.5001    12.2085    13.6900 H            1 MGT1000   0.0000
@<TRIPOS>BOND
     1    1    2      ar
     2    1    3      ar
     3    1    4      ar
     4    1    5       1
     5    5    6       1
     6    6    7      ar
     7    6    8      ar
     8    6    9       1
     9    9   10       1
    10   10   11      ar
    11   10   12      ar
    12   10   13       1
    13   13   14       1
    14   14   15       1
    15   15   16       1
    16   15   17       1
    17   16   21       1
    18   17   18       1
    19   17   19       1
    20   19   20       1
    21   19   21       1
    22   21   22       1
    23   22   23       2
    24   22   33       1
    25   23   24       1
    26   24   25       1
    27   24   26       1
    28   26   27       1
    29   26   33       2
    30   27   28       2
    31   27   29       1
    32   29   30       1
    33   30   31       1
    34   30   32       2
    35   32   33       1
    36   31   48       1
    37   31   47       1
    38   29   46       1
    39   25   45       1
    40   14   34       1
    41   14   35       1
    42   15   36       1
    43   17   37       1
    44   18   38       1
    45   19   39       1
    46   20   40       1
    47   21   41       1
    48   23   42       1
    49   25   43       1
    50   25   44       1
@<TRIPOS>SUBSTRUCTURE
     1 MGT1000     1 GROUP             4 B     MGT     0 **** MGT B1000
