@<TRIPOS>MOLECULE
3p6p_A6B_1_ligand
   79    83     1     0     0
SMALL
NO_CHARGES


@<TRIPOS>ATOM
     1 C1          -1.3370   -26.4070    23.4970 C.3          1 A6B440   0.0000
     2 C2          -1.3790   -25.0170    24.1660 C.3          1 A6B440   0.0000
     3 C3          -1.9200   -23.9710    23.1740 C.3          1 A6B440   0.0000
     4 C4          -3.3330   -24.3670    22.7360 C.3          1 A6B440   0.0000
     5 C5          -3.3160   -25.7590    22.0680 C.3          1 A6B440   0.0000
     6 C6          -2.7560   -26.8080    23.0540 C.3          1 A6B440   0.0000
     7 C7          -0.4210   -26.3310    22.2730 C.3          1 A6B440   0.0000
     8 C8          -0.9960   -23.9120    21.9570 C.3          1 A6B440   0.0000
     9 C9          -2.3860   -25.6440    20.8480 C.3          1 A6B440   0.0000
    10 C10         -0.9500   -25.2790    21.2710 C.3          1 A6B440   0.0000
    11 C11         -0.7970   -27.4180    24.4870 C.2          1 A6B440   0.0000
    12 N12         -0.8410   -28.7140    24.1340 N.am         1 A6B440   0.0000
    13 O13         -0.3350   -27.0330    25.5510 O.2          1 A6B440   0.0000
    14 C14         -0.4520   -29.7930    25.0470 C.3          1 A6B440   0.0000
    15 C15         -1.6150   -30.3720    25.8430 C.3          1 A6B440   0.0000
    16 C16         -2.5140   -31.1660    24.9010 C.3          1 A6B440   0.0000
    17 C17         -3.5970   -31.9350    25.6420 C.3          1 A6B440   0.0000
    18 C18         -4.2110   -32.9580    24.6920 C.3          1 A6B440   0.0000
    19 C19         -5.6130   -33.3610    25.1380 C.3          1 A6B440   0.0000
    20 C21        -12.4580   -39.8420    26.5750 C.2          1 A6B440   0.0000
    21 N22        -11.6300   -38.8200    26.3360 N.am         1 A6B440   0.0000
    22 C23        -12.2390   -37.5400    26.6700 C.3          1 A6B440   0.0000
    23 C24        -13.5290   -37.9360    27.3990 C.3          1 A6B440   0.0000
    24 N25        -13.5990   -39.4010    27.1710 N.am         1 A6B440   0.0000
    25 C26        -13.4930   -37.6090    28.9240 C.3          1 A6B440   0.0000
    26 S27        -11.9730   -36.6790    29.1430 S.3          1 A6B440   0.0000
    27 C28        -11.3370   -36.6190    27.5000 C.3          1 A6B440   0.0000
    28 O29        -12.2100   -41.0310    26.2850 O.2          1 A6B440   0.0000
    29 C30         -9.8550   -36.9940    27.4470 C.3          1 A6B440   0.0000
    30 C31         -9.0280   -35.8540    26.8610 C.3          1 A6B440   0.0000
    31 C32         -8.3470   -35.0530    27.9670 C.3          1 A6B440   0.0000
    32 C33         -7.7570   -33.7550    27.4320 C.3          1 A6B440   0.0000
    33 C34         -6.2400   -33.8070    27.4570 C.2          1 A6B440   0.0000
    34 O35         -5.6260   -33.5160    28.4740 O.2          1 A6B440   0.0000
    35 N36         -5.6170   -34.1800    26.3370 N.am         1 A6B440   0.0000
    36 H1          -0.4557   -24.7580    24.4496 H            1 A6B440   0.0000
    37 H2          -1.9760   -25.0531    24.9674 H            1 A6B440   0.0000
    38 H3          -1.9468   -23.0745    23.6162 H            1 A6B440   0.0000
    39 H4          -3.6775   -23.6921    22.0835 H            1 A6B440   0.0000
    40 H5          -3.9317   -24.3925    23.5366 H            1 A6B440   0.0000
    41 H6          -4.2380   -26.0147    21.7774 H            1 A6B440   0.0000
    42 H7          -3.3512   -26.8601    23.8559 H            1 A6B440   0.0000
    43 H8          -2.7231   -27.7008    22.6047 H            1 A6B440   0.0000
    44 H9          -0.3914   -27.2256    21.8271 H            1 A6B440   0.0000
    45 H10          0.5000   -26.0738    22.5657 H            1 A6B440   0.0000
    46 H11         -0.0749   -23.6580    22.2521 H            1 A6B440   0.0000
    47 H12         -1.3398   -23.2290    21.3125 H            1 A6B440   0.0000
    48 H13         -2.7362   -24.9338    20.2373 H            1 A6B440   0.0000
    49 H14         -2.3709   -26.5202    20.3662 H            1 A6B440   0.0000
    50 H15         -0.3551   -25.2402    20.4681 H            1 A6B440   0.0000
    51 H16         -1.1509   -28.9514    23.2134 H            1 A6B440   0.0000
    52 H17          0.2232   -29.4334    25.6910 H            1 A6B440   0.0000
    53 H18         -0.0406   -30.5287    24.5090 H            1 A6B440   0.0000
    54 H19         -2.1389   -29.6292    26.2599 H            1 A6B440   0.0000
    55 H20         -1.2639   -30.9751    26.5593 H            1 A6B440   0.0000
    56 H21         -1.9503   -31.8161    24.3914 H            1 A6B440   0.0000
    57 H22         -2.9503   -30.5315    24.2630 H            1 A6B440   0.0000
    58 H23         -4.3040   -31.3014    25.9561 H            1 A6B440   0.0000
    59 H24         -3.1970   -32.4048    26.4289 H            1 A6B440   0.0000
    60 H25         -3.6300   -33.7716    24.6705 H            1 A6B440   0.0000
    61 H26         -4.2627   -32.5610    23.7756 H            1 A6B440   0.0000
    62 H27         -6.0459   -33.8770    24.3989 H            1 A6B440   0.0000
    63 H28         -6.1404   -32.5307    25.3182 H            1 A6B440   0.0000
    64 H29        -10.7043   -38.9221    25.9719 H            1 A6B440   0.0000
    65 H30        -12.4822   -37.0701    25.8215 H            1 A6B440   0.0000
    66 H31        -14.3137   -37.4865    26.9722 H            1 A6B440   0.0000
    67 H32        -14.3744   -39.9814    27.4200 H            1 A6B440   0.0000
    68 H33        -13.4754   -38.4492    29.4661 H            1 A6B440   0.0000
    69 H34        -14.2857   -37.0591    29.1871 H            1 A6B440   0.0000
    70 H35        -11.4384   -35.6853    27.1566 H            1 A6B440   0.0000
    71 H36         -9.7429   -37.8074    26.8761 H            1 A6B440   0.0000
    72 H37         -9.5331   -37.1899    28.3733 H            1 A6B440   0.0000
    73 H38         -9.6286   -35.2478    26.3397 H            1 A6B440   0.0000
    74 H39         -8.3298   -36.2339    26.2542 H            1 A6B440   0.0000
    75 H40         -7.6131   -35.6047    28.3633 H            1 A6B440   0.0000
    76 H41         -9.0205   -34.8370    28.6739 H            1 A6B440   0.0000
    77 H42         -8.0691   -32.9935    28.0001 H            1 A6B440   0.0000
    78 H43         -8.0656   -33.6171    26.4909 H            1 A6B440   0.0000
    79 H44         -5.1351   -35.0561    26.3231 H            1 A6B440   0.0000
@<TRIPOS>BOND
     1    1    2       1
     2    1    6       1
     3    1    7       1
     4    1   11       1
     5    2    3       1
     6    3    4       1
     7    3    8       1
     8    4    5       1
     9    5    6       1
    10    5    9       1
    11    7   10       1
    12    8   10       1
    13    9   10       1
    14   11   12      am
    15   11   13       2
    16   12   14       1
    17   14   15       1
    18   15   16       1
    19   16   17       1
    20   17   18       1
    21   18   19       1
    22   19   35       1
    23   20   21      am
    24   20   24      am
    25   20   28       2
    26   21   22       1
    27   22   23       1
    28   22   27       1
    29   23   24       1
    30   23   25       1
    31   25   26       1
    32   26   27       1
    33   27   29       1
    34   29   30       1
    35   30   31       1
    36   31   32       1
    37   32   33       1
    38   33   34       2
    39   33   35      am
    40    2   36       1
    41    2   37       1
    42    3   38       1
    43    4   39       1
    44    4   40       1
    45    5   41       1
    46    6   42       1
    47    6   43       1
    48    7   44       1
    49    7   45       1
    50    8   46       1
    51    8   47       1
    52    9   48       1
    53    9   49       1
    54   10   50       1
    55   12   51       1
    56   14   52       1
    57   14   53       1
    58   15   54       1
    59   15   55       1
    60   16   56       1
    61   16   57       1
    62   17   58       1
    63   17   59       1
    64   18   60       1
    65   18   61       1
    66   19   62       1
    67   19   63       1
    68   21   64       1
    69   22   65       1
    70   23   66       1
    71   24   67       1
    72   25   68       1
    73   25   69       1
    74   27   70       1
    75   29   71       1
    76   29   72       1
    77   30   73       1
    78   30   74       1
    79   31   75       1
    80   31   76       1
    81   32   77       1
    82   32   78       1
    83   35   79       1
@<TRIPOS>SUBSTRUCTURE
     1 A6B440      1 GROUP             4 A     A6B     0 **** A6B A 440
