@<TRIPOS>MOLECULE
2w5u_FMN_1_ligand
   50    52     1     0     0
SMALL
NO_CHARGES


@<TRIPOS>ATOM
     1 N1           5.1750     0.8970    62.3280 N.2          1 FMN165   0.0000
     2 C2           5.7440     2.0060    61.7020 C.2          1 FMN165   0.0000
     3 O2           6.8230     1.9440    61.1060 O.2          1 FMN165   0.0000
     4 N3           5.0760     3.2100    61.7510 N.pl3        1 FMN165   0.0000
     5 C4           3.8640     3.3170    62.4000 C.2          1 FMN165   0.0000
     6 O4           3.2410     4.3670    62.3810 O.2          1 FMN165   0.0000
     7 C4A          3.2790     2.2230    63.0200 C.2          1 FMN165   0.0000
     8 N5           2.0600     2.3840    63.6500 N.2          1 FMN165   0.0000
     9 C5A          1.4700     1.3070    64.2520 C.ar         1 FMN165   0.0000
    10 C6           0.2300     1.4750    64.8860 C.ar         1 FMN165   0.0000
    11 C7          -0.4090     0.3970    65.5260 C.ar         1 FMN165   0.0000
    12 C7M         -1.8170     0.5780    66.0380 C.3          1 FMN165   0.0000
    13 C8           0.2130    -0.8650    65.5310 C.ar         1 FMN165   0.0000
    14 C8M         -0.5550    -2.1190    65.9300 C.3          1 FMN165   0.0000
    15 C9           1.4540    -1.0090    64.8950 C.ar         1 FMN165   0.0000
    16 C9A          2.0960     0.0470    64.2390 C.ar         1 FMN165   0.0000
    17 N10          3.3490    -0.1170    63.6200 N.pl3        1 FMN165   0.0000
    18 C10          3.9440     0.9820    62.9860 C.2          1 FMN165   0.0000
    19 C1'          4.0820    -1.4360    63.6860 C.3          1 FMN165   0.0000
    20 C2'          4.8460    -1.6870    64.9920 C.3          1 FMN165   0.0000
    21 O2'          5.6890    -0.6110    65.3620 O.3          1 FMN165   0.0000
    22 C3'          5.6650    -2.9750    64.8800 C.3          1 FMN165   0.0000
    23 O3'          4.8020    -3.9760    64.3900 O.3          1 FMN165   0.0000
    24 C4'          6.2770    -3.4220    66.2120 C.3          1 FMN165   0.0000
    25 O4'          7.2650    -4.3590    65.8920 O.3          1 FMN165   0.0000
    26 C5'          5.4110    -4.0830    67.2790 C.3          1 FMN165   0.0000
    27 O5'          6.2080    -4.1040    68.4240 O.3          1 FMN165   0.0000
    28 P            5.8660    -5.1140    69.5610 P.3          1 FMN165   0.0000
    29 O1P          5.6590    -6.4480    68.9170 O.co2        1 FMN165   0.0000
    30 O2P          4.6420    -4.5730    70.3060 O.co2        1 FMN165  -1.0000
    31 O3P          7.0980    -5.0690    70.4420 O.co2        1 FMN165  -1.0000
    32 H1           5.4743     4.0149    61.3112 H            1 FMN165   0.0000
    33 H2          -0.2065     2.3747    64.8831 H            1 FMN165   0.0000
    34 H7M1        -2.1286    -0.2714    66.4639 H            1 FMN165   0.0000
    35 H7M2        -1.8339     1.3152    66.7134 H            1 FMN165   0.0000
    36 H7M3        -2.4215     0.8102    65.2760 H            1 FMN165   0.0000
    37 H8M1         0.0502    -2.9130    65.8724 H            1 FMN165   0.0000
    38 H8M2        -0.8885    -2.0214    66.8677 H            1 FMN165   0.0000
    39 H8M3        -1.3308    -2.2456    65.3118 H            1 FMN165   0.0000
    40 H9           1.8992    -1.9043    64.9109 H            1 FMN165   0.0000
    41 H1'1         4.7383    -1.4645    62.9320 H            1 FMN165   0.0000
    42 H1'2         3.4119    -2.1695    63.5725 H            1 FMN165   0.0000
    43 H2'          4.1733    -1.8140    65.7210 H            1 FMN165   0.0000
    44 H13          5.1394     0.2149    65.4880 H            1 FMN165   0.0000
    45 H3'          6.4014    -2.8323    64.2187 H            1 FMN165   0.0000
    46 H15          5.1568    -4.3272    63.5235 H            1 FMN165   0.0000
    47 H4'          6.7257    -2.6301    66.6262 H            1 FMN165   0.0000
    48 H17          7.9912    -4.3254    66.5787 H            1 FMN165   0.0000
    49 H5'1         5.1633    -5.0124    67.0054 H            1 FMN165   0.0000
    50 H5'2         4.5801    -3.5498    67.4381 H            1 FMN165   0.0000
@<TRIPOS>BOND
     1    1    2       1
     2    1   18       2
     3    2    3       2
     4    2    4       1
     5    4    5       1
     6    5    6       2
     7    5    7       1
     8    7    8       2
     9    7   18       1
    10    8    9       1
    11    9   10      ar
    12    9   16      ar
    13   10   11      ar
    14   11   12       1
    15   11   13      ar
    16   13   14       1
    17   13   15      ar
    18   15   16      ar
    19   16   17       1
    20   17   18       1
    21   17   19       1
    22   19   20       1
    23   20   21       1
    24   20   22       1
    25   22   23       1
    26   22   24       1
    27   24   25       1
    28   24   26       1
    29   26   27       1
    30   27   28       1
    31   28   29      ar
    32   28   30      ar
    33   28   31      ar
    34    4   32       1
    35   10   33       1
    36   12   34       1
    37   12   35       1
    38   12   36       1
    39   14   37       1
    40   14   38       1
    41   14   39       1
    42   15   40       1
    43   19   41       1
    44   19   42       1
    45   20   43       1
    46   21   44       1
    47   22   45       1
    48   23   46       1
    49   24   47       1
    50   25   48       1
    51   26   49       1
    52   26   50       1
@<TRIPOS>SUBSTRUCTURE
     1 FMN165      1 GROUP             4 B     FMN     0 **** FMN B 165
