@<TRIPOS>MOLECULE
3v76_FDA_1_ligand
   84    89     1     0     0
SMALL
NO_CHARGES


@<TRIPOS>ATOM
     1 PA          50.5130   -34.1640     1.6300 P.3          1 FDA547   0.0000
     2 O1A         49.3080   -33.2310     1.4080 O.co2        1 FDA547   0.0000
     3 O2A         50.6420   -34.1360     2.9560 O.co2        1 FDA547  -1.0000
     4 O5B         51.7930   -33.5750     0.9960 O.3          1 FDA547   0.0000
     5 C5B         52.0350   -33.7460    -0.3200 C.3          1 FDA547   0.0000
     6 C4B         53.1790   -32.8710    -0.7040 C.3          1 FDA547   0.0000
     7 O4B         53.7310   -32.8890    -2.0040 O.3          1 FDA547   0.0000
     8 C3B         52.9640   -31.3700    -0.3460 C.3          1 FDA547   0.0000
     9 O3B         53.7040   -30.8350     0.6820 O.3          1 FDA547   0.0000
    10 C2B         53.0410   -30.7120    -1.7050 C.3          1 FDA547   0.0000
    11 O2B         53.3160   -29.3660    -1.6960 O.3          1 FDA547   0.0000
    12 C1B         53.9260   -31.6340    -2.4150 C.3          1 FDA547   0.0000
    13 N9A         53.7510   -31.5840    -3.8230 N.pl3        1 FDA547   0.0000
    14 C8A         52.6280   -31.7580    -4.4520 C.2          1 FDA547   0.0000
    15 N7A         52.8950   -31.7580    -5.7650 N.2          1 FDA547   0.0000
    16 C5A         54.2040   -31.5250    -5.9380 C.ar         1 FDA547   0.0000
    17 C6A         54.9780   -31.4870    -7.0280 C.ar         1 FDA547   0.0000
    18 N6A         54.4230   -31.5100    -8.3360 N.pl3        1 FDA547   0.0000
    19 N1A         56.2580   -31.4220    -6.9110 N.ar         1 FDA547   0.0000
    20 C2A         56.8200   -31.3690    -5.7260 C.ar         1 FDA547   0.0000
    21 N3A         56.0470   -31.4260    -4.6570 N.ar         1 FDA547   0.0000
    22 C4A         54.7490   -31.4830    -4.7620 C.ar         1 FDA547   0.0000
    23 N1          43.4830   -35.6320     7.5220 N.2          1 FDA547   0.0000
    24 C2          43.4150   -36.1010     8.7340 C.2          1 FDA547   0.0000
    25 O2          43.7930   -37.3800     8.9470 O.2          1 FDA547   0.0000
    26 N3          42.9760   -35.3220     9.7410 N.pl3        1 FDA547   0.0000
    27 C4          42.6110   -34.0710     9.4910 C.2          1 FDA547   0.0000
    28 O4          42.1690   -33.2830    10.4790 O.2          1 FDA547   0.0000
    29 C4X         42.6820   -33.5790     8.2520 C.2          1 FDA547   0.0000
    30 N5          42.3150   -32.3450     8.0210 N.2          1 FDA547   0.0000
    31 C5X         42.3750   -31.8930     6.8090 C.ar         1 FDA547   0.0000
    32 C6          41.9950   -30.6080     6.5290 C.ar         1 FDA547   0.0000
    33 C7          42.0790   -30.1540     5.2450 C.ar         1 FDA547   0.0000
    34 C7M         41.6790   -28.7380     4.8850 C.3          1 FDA547   0.0000
    35 C8          42.5670   -30.9600     4.2620 C.ar         1 FDA547   0.0000
    36 C8M         42.6570   -30.4510     2.8490 C.3          1 FDA547   0.0000
    37 C9          42.9380   -32.2220     4.5460 C.ar         1 FDA547   0.0000
    38 C9A         42.8100   -32.6830     5.8160 C.ar         1 FDA547   0.0000
    39 N10         43.1860   -33.8810     6.0490 N.pl3        1 FDA547   0.0000
    40 C10         43.1010   -34.3440     7.2630 C.2          1 FDA547   0.0000
    41 C1'         43.6920   -34.6740     4.9690 C.3          1 FDA547   0.0000
    42 C2'         45.2050   -34.7320     5.0500 C.3          1 FDA547   0.0000
    43 O2'         45.6780   -33.4640     4.8980 O.3          1 FDA547   0.0000
    44 C3'         45.8660   -35.6300     4.0500 C.3          1 FDA547   0.0000
    45 O3'         45.2940   -36.8900     4.0910 O.3          1 FDA547   0.0000
    46 C4'         47.3820   -35.6290     4.0980 C.3          1 FDA547   0.0000
    47 O4'         47.9930   -34.3990     4.0620 O.3          1 FDA547   0.0000
    48 C5'         48.0590   -36.5950     3.1850 C.3          1 FDA547   0.0000
    49 O5'         49.3650   -36.8970     3.4530 O.3          1 FDA547   0.0000
    50 P           50.4490   -36.8790     2.2940 P.3          1 FDA547   0.0000
    51 O1P         51.9390   -36.8560     2.8480 O.co2        1 FDA547   0.0000
    52 O2P         50.2660   -37.9870     1.5150 O.co2        1 FDA547  -1.0000
    53 O3P         50.2260   -35.6770     1.2770 O.3          1 FDA547   0.0000
    54 H5B1        51.2243   -33.4937    -0.8483 H            1 FDA547   0.0000
    55 H5B2        52.2657   -34.7023    -0.4998 H            1 FDA547   0.0000
    56 H4B         53.9283   -33.1646    -0.1104 H            1 FDA547   0.0000
    57 H3B         52.0085   -31.2932    -0.0611 H            1 FDA547   0.0000
    58 H5          54.6776   -30.9121     0.4672 H            1 FDA547   0.0000
    59 H2B         52.1365   -30.8129    -2.1195 H            1 FDA547   0.0000
    60 H7          54.3057   -29.2277    -1.7327 H            1 FDA547   0.0000
    61 H1B         54.8712   -31.3810    -2.2085 H            1 FDA547   0.0000
    62 H8A         51.7274   -31.8714    -4.0324 H            1 FDA547   0.0000
    63 H6A1        55.0240   -31.4806    -9.1347 H            1 FDA547   0.0000
    64 H6A2        53.4315   -31.5556    -8.4577 H            1 FDA547   0.0000
    65 H2A         57.8125   -31.2872    -5.6347 H            1 FDA547   0.0000
    66 H13         42.9254   -35.6842    10.6717 H            1 FDA547   0.0000
    67 H14         41.6599   -30.0094     7.2566 H            1 FDA547   0.0000
    68 H7M1        41.8098   -28.5938     3.9041 H            1 FDA547   0.0000
    69 H7M2        40.7172   -28.5939     5.1178 H            1 FDA547   0.0000
    70 H7M3        42.2460   -28.0915     5.3954 H            1 FDA547   0.0000
    71 H8M1        43.0344   -31.1660     2.2605 H            1 FDA547   0.0000
    72 H8M2        41.7443   -30.2008     2.5261 H            1 FDA547   0.0000
    73 H8M3        43.2522   -29.6479     2.8213 H            1 FDA547   0.0000
    74 H21         43.3044   -32.8142     3.8284 H            1 FDA547   0.0000
    75 H1'1        43.4203   -34.2637     4.0984 H            1 FDA547   0.0000
    76 H1'2        43.3191   -35.5997     5.0320 H            1 FDA547   0.0000
    77 H2'         45.4550   -35.0490     5.9649 H            1 FDA547   0.0000
    78 H25         46.5810   -33.4942     4.4693 H            1 FDA547   0.0000
    79 H3'         45.6261   -35.2559     3.1542 H            1 FDA547   0.0000
    80 H27         45.3494   -37.3109     3.1856 H            1 FDA547   0.0000
    81 H4'         47.5931   -35.9749     5.0122 H            1 FDA547   0.0000
    82 H29         48.5890   -34.3462     3.2608 H            1 FDA547   0.0000
    83 H5'1        48.0219   -36.2130     2.2616 H            1 FDA547   0.0000
    84 H5'2        47.5406   -37.4497     3.2132 H            1 FDA547   0.0000
@<TRIPOS>BOND
     1    1    2      ar
     2    1    3      ar
     3    1    4       1
     4    1   53       1
     5    4    5       1
     6    5    6       1
     7    6    7       1
     8    6    8       1
     9    7   12       1
    10    8    9       1
    11    8   10       1
    12   10   11       1
    13   10   12       1
    14   12   13       1
    15   13   14       1
    16   13   22       1
    17   14   15       2
    18   15   16       1
    19   16   17      ar
    20   16   22      ar
    21   17   18       1
    22   17   19      ar
    23   19   20      ar
    24   20   21      ar
    25   21   22      ar
    26   23   24       1
    27   23   40       2
    28   24   25       2
    29   24   26       1
    30   26   27       1
    31   27   28       2
    32   27   29       1
    33   29   30       2
    34   29   40       1
    35   30   31       1
    36   31   32      ar
    37   31   38      ar
    38   32   33      ar
    39   33   34       1
    40   33   35      ar
    41   35   36       1
    42   35   37      ar
    43   37   38      ar
    44   38   39       1
    45   39   40       1
    46   39   41       1
    47   41   42       1
    48   42   43       1
    49   42   44       1
    50   44   45       1
    51   44   46       1
    52   46   47       1
    53   46   48       1
    54   48   49       1
    55   49   50       1
    56   50   51      ar
    57   50   52      ar
    58   50   53       1
    59   48   84       1
    60    5   54       1
    61    5   55       1
    62    6   56       1
    63    8   57       1
    64    9   58       1
    65   10   59       1
    66   11   60       1
    67   12   61       1
    68   14   62       1
    69   18   63       1
    70   18   64       1
    71   20   65       1
    72   26   66       1
    73   32   67       1
    74   34   68       1
    75   34   69       1
    76   34   70       1
    77   36   71       1
    78   36   72       1
    79   36   73       1
    80   37   74       1
    81   41   75       1
    82   41   76       1
    83   42   77       1
    84   43   78       1
    85   44   79       1
    86   45   80       1
    87   46   81       1
    88   47   82       1
    89   48   83       1
@<TRIPOS>SUBSTRUCTURE
     1 FDA547      1 GROUP             4 A     FDA     0 **** FDA A 547
