@<TRIPOS>MOLECULE
4x86_CPS_1_ligand
  100   103     1     0     0
SMALL
NO_CHARGES


@<TRIPOS>ATOM
     1 C1         -86.8340   152.6910    -3.3740 C.3          1 CPS1201   0.0000
     2 C2         -87.4040   151.2750    -3.3760 C.3          1 CPS1201   0.0000
     3 C3         -86.2980   150.9060    -5.6300 C.3          1 CPS1201   0.0000
     4 C4         -86.4230   150.4000    -7.0790 C.3          1 CPS1201   0.0000
     5 C5         -87.0680   149.0200    -7.1410 C.3          1 CPS1201   0.0000
     6 C6         -88.3560   149.0420    -6.3410 C.3          1 CPS1201   0.0000
     7 C7         -89.0160   147.7050    -6.6460 C.3          1 CPS1201   0.0000
     8 C8         -88.6520   147.4660    -8.1130 C.3          1 CPS1201   0.0000
     9 C9         -87.6280   148.5420    -8.4940 C.3          1 CPS1201   0.0000
    10 C10        -86.1270   147.9790    -6.5330 C.3          1 CPS1201   0.0000
    11 C11        -86.4270   150.3620    -2.6480 C.3          1 CPS1201   0.0000
    12 C12        -87.8230   153.7250    -3.9020 C.3          1 CPS1201   0.0000
    13 C13        -89.1390   153.6790    -3.1260 C.3          1 CPS1201   0.0000
    14 C14        -89.7280   152.2760    -3.1910 C.3          1 CPS1201   0.0000
    15 C15        -88.7490   151.2340    -2.6500 C.3          1 CPS1201   0.0000
    16 C16        -89.3570   149.8270    -2.6790 C.3          1 CPS1201   0.0000
    17 C17        -89.4580   149.2400    -4.0940 C.3          1 CPS1201   0.0000
    18 C18        -88.1500   149.3820    -4.8710 C.3          1 CPS1201   0.0000
    19 C19        -87.5940   150.8000    -4.8210 C.3          1 CPS1201   0.0000
    20 C20        -86.7450   148.0070    -9.6340 C.3          1 CPS1201   0.0000
    21 C21        -85.4280   148.7380    -9.8840 C.3          1 CPS1201   0.0000
    22 C22        -87.5860   148.0280   -10.9150 C.3          1 CPS1201   0.0000
    23 C23        -86.9640   147.2380   -12.0690 C.3          1 CPS1201   0.0000
    24 C24        -87.4050   147.7850   -13.4150 C.2          1 CPS1201   0.0000
    25 C25        -85.3590   147.0670   -14.5270 C.3          1 CPS1201   0.0000
    26 C26        -85.0780   146.8620   -16.0120 C.3          1 CPS1201   0.0000
    27 C27        -84.1490   145.6780   -16.2630 C.3          1 CPS1201   0.0000
    28 C28        -85.3700   145.2350   -18.2860 C.3          1 CPS1201   0.0000
    29 C29        -83.4070   146.6140   -18.3460 C.3          1 CPS1201   0.0000
    30 C30        -83.2040   144.2550   -17.9610 C.3          1 CPS1201   0.0000
    31 C31        -83.0880   144.0290   -19.4640 C.3          1 CPS1201   0.0000
    32 C32        -82.9630   142.5460   -19.7850 C.3          1 CPS1201   0.0000
    33 N1         -86.4470   148.0050   -14.3150 N.am         1 CPS1201   0.0000
    34 N2         -84.0320   145.4450   -17.7120 N.4          1 CPS1201   1.0000
    35 O1         -88.5820   148.0160   -13.6470 O.2          1 CPS1201   0.0000
    36 O2         -90.0430   154.6190    -3.7170 O.3          1 CPS1201   0.0000
    37 O3         -90.5180   149.8690    -4.8230 O.3          1 CPS1201   0.0000
    38 O4         -87.1760   151.3260    -7.8690 O.3          1 CPS1201   0.0000
    39 O2S        -84.7160   143.3920   -21.4630 O.co2        1 CPS1201   0.0000
    40 O3S        -83.1130   141.7510   -22.2250 O.co2        1 CPS1201   0.0000
    41 O1S        -84.8750   141.1020   -20.7070 O.co2        1 CPS1201  -1.0000
    42 S          -83.9430   142.1890   -21.0800 S.o2         1 CPS1201   0.0000
    43 H1         -86.0164   152.7074    -3.9495 H            1 CPS1201   0.0000
    44 H2         -86.5865   152.9348    -2.4363 H            1 CPS1201   0.0000
    45 H3         -86.0201   151.8663    -5.6548 H            1 CPS1201   0.0000
    46 H4         -85.5936   150.3670    -5.1681 H            1 CPS1201   0.0000
    47 H5         -85.5038   150.3332    -7.4671 H            1 CPS1201   0.0000
    48 H6         -88.9366   149.7559    -6.7324 H            1 CPS1201   0.0000
    49 H7         -90.0074   147.7582    -6.5260 H            1 CPS1201   0.0000
    50 H8         -88.6480   146.9813    -6.0622 H            1 CPS1201   0.0000
    51 H9         -89.4664   147.5465    -8.6877 H            1 CPS1201   0.0000
    52 H10        -88.2534   146.5558    -8.2253 H            1 CPS1201   0.0000
    53 H11        -88.1480   149.3076    -8.8727 H            1 CPS1201   0.0000
    54 H12        -86.5555   147.0765    -6.5766 H            1 CPS1201   0.0000
    55 H13        -85.2687   147.9656    -7.0459 H            1 CPS1201   0.0000
    56 H14        -85.9415   148.2142    -5.5789 H            1 CPS1201   0.0000
    57 H15        -86.7857   149.4286    -2.6401 H            1 CPS1201   0.0000
    58 H16        -85.5444   150.3759    -3.1179 H            1 CPS1201   0.0000
    59 H17        -86.3092   150.6818    -1.7079 H            1 CPS1201   0.0000
    60 H18        -88.0067   153.5374    -4.8669 H            1 CPS1201   0.0000
    61 H19        -87.4220   154.6364    -3.8101 H            1 CPS1201   0.0000
    62 H20        -88.9736   153.9285    -2.1718 H            1 CPS1201   0.0000
    63 H21        -89.9428   152.0572    -4.1428 H            1 CPS1201   0.0000
    64 H22        -90.5657   152.2493    -2.6456 H            1 CPS1201   0.0000
    65 H23        -88.5749   151.4612    -1.6918 H            1 CPS1201   0.0000
    66 H24        -90.2757   149.8698    -2.2865 H            1 CPS1201   0.0000
    67 H25        -88.7854   149.2224    -2.1243 H            1 CPS1201   0.0000
    68 H26        -89.6694   148.2659    -4.0137 H            1 CPS1201   0.0000
    69 H27        -87.4737   148.7547    -4.4848 H            1 CPS1201   0.0000
    70 H28        -88.2669   151.4026    -5.2500 H            1 CPS1201   0.0000
    71 H29        -86.5285   147.0526    -9.4283 H            1 CPS1201   0.0000
    72 H30        -84.9442   148.3029   -10.6433 H            1 CPS1201   0.0000
    73 H31        -85.6152   149.6935   -10.1118 H            1 CPS1201   0.0000
    74 H32        -84.8621   148.6963    -9.0606 H            1 CPS1201   0.0000
    75 H33        -87.6959   148.9785   -11.2056 H            1 CPS1201   0.0000
    76 H34        -88.4830   147.6360   -10.7108 H            1 CPS1201   0.0000
    77 H35        -87.2465   146.2814   -11.9981 H            1 CPS1201   0.0000
    78 H36        -85.9679   147.2971   -12.0042 H            1 CPS1201   0.0000
    79 H37        -84.5342   147.4212   -14.0862 H            1 CPS1201   0.0000
    80 H38        -85.6039   146.1878   -14.1184 H            1 CPS1201   0.0000
    81 H39        -84.6511   147.6896   -16.3765 H            1 CPS1201   0.0000
    82 H40        -85.9440   146.6979   -16.4843 H            1 CPS1201   0.0000
    83 H41        -84.5232   144.8616   -15.8232 H            1 CPS1201   0.0000
    84 H42        -83.2455   145.8768   -15.8833 H            1 CPS1201   0.0000
    85 H43        -85.2895   145.0768   -19.2701 H            1 CPS1201   0.0000
    86 H44        -85.7968   144.4403   -17.8545 H            1 CPS1201   0.0000
    87 H45        -85.9333   146.0451   -18.1236 H            1 CPS1201   0.0000
    88 H46        -83.3272   146.4565   -19.3303 H            1 CPS1201   0.0000
    89 H47        -83.9712   147.4233   -18.1826 H            1 CPS1201   0.0000
    90 H48        -82.4972   146.7578   -17.9566 H            1 CPS1201   0.0000
    91 H49        -82.2931   144.3944   -17.5727 H            1 CPS1201   0.0000
    92 H50        -83.6294   143.4566   -17.5348 H            1 CPS1201   0.0000
    93 H51        -82.2783   144.5067   -19.8049 H            1 CPS1201   0.0000
    94 H52        -83.9038   144.3932   -19.9133 H            1 CPS1201   0.0000
    95 H53        -83.2452   142.0062   -18.9919 H            1 CPS1201   0.0000
    96 H54        -82.0135   142.3312   -20.0136 H            1 CPS1201   0.0000
    97 H55        -86.4784   148.8420   -14.8613 H            1 CPS1201   0.0000
    98 H56        -90.5721   154.1665    -4.4348 H            1 CPS1201   0.0000
    99 H57        -91.2348   150.1562    -4.1877 H            1 CPS1201   0.0000
   100 H58        -86.8643   151.2848    -8.8183 H            1 CPS1201   0.0000
@<TRIPOS>BOND
     1    1    2       1
     2    1   12       1
     3    2   11       1
     4    2   15       1
     5    2   19       1
     6    3    4       1
     7    3   19       1
     8    4    5       1
     9    4   38       1
    10    5    6       1
    11    5    9       1
    12    5   10       1
    13    6    7       1
    14    6   18       1
    15    7    8       1
    16    8    9       1
    17    9   20       1
    18   12   13       1
    19   13   14       1
    20   13   36       1
    21   14   15       1
    22   15   16       1
    23   16   17       1
    24   17   18       1
    25   17   37       1
    26   18   19       1
    27   20   21       1
    28   20   22       1
    29   22   23       1
    30   23   24       1
    31   24   33      am
    32   24   35       2
    33   25   26       1
    34   25   33       1
    35   26   27       1
    36   27   34       1
    37   28   34       1
    38   29   34       1
    39   30   31       1
    40   30   34       1
    41   31   32       1
    42   32   42       1
    43   39   42      ar
    44   40   42      ar
    45   41   42      ar
    46    1   43       1
    47    1   44       1
    48    3   45       1
    49    3   46       1
    50    4   47       1
    51    6   48       1
    52    7   49       1
    53    7   50       1
    54    8   51       1
    55    8   52       1
    56    9   53       1
    57   10   54       1
    58   10   55       1
    59   10   56       1
    60   11   57       1
    61   11   58       1
    62   11   59       1
    63   12   60       1
    64   12   61       1
    65   13   62       1
    66   14   63       1
    67   14   64       1
    68   15   65       1
    69   16   66       1
    70   16   67       1
    71   17   68       1
    72   18   69       1
    73   19   70       1
    74   20   71       1
    75   21   72       1
    76   21   73       1
    77   21   74       1
    78   22   75       1
    79   22   76       1
    80   23   77       1
    81   23   78       1
    82   25   79       1
    83   25   80       1
    84   26   81       1
    85   26   82       1
    86   27   83       1
    87   27   84       1
    88   28   85       1
    89   28   86       1
    90   28   87       1
    91   29   88       1
    92   29   89       1
    93   29   90       1
    94   30   91       1
    95   30   92       1
    96   31   93       1
    97   31   94       1
    98   32   95       1
    99   32   96       1
   100   33   97       1
   101   36   98       1
   102   37   99       1
   103   38  100       1
@<TRIPOS>SUBSTRUCTURE
     1 CPS1201     1 GROUP             4 B     CPS     0 **** CPS B1201
