@<TRIPOS>MOLECULE
3f0a_ACO_1_ligand
   85    87     1     0     0
SMALL
NO_CHARGES


@<TRIPOS>ATOM
     1 N1A          9.1640    -8.1190   -18.9990 N.ar         1 ACO162   0.0000
     2 C2A         10.1630    -8.7890   -18.3860 C.ar         1 ACO162   0.0000
     3 N3A         11.4850    -8.5350   -18.6220 N.ar         1 ACO162   0.0000
     4 C4A         11.8770    -7.5750   -19.4990 C.ar         1 ACO162   0.0000
     5 C5A         10.8410    -6.8070   -20.2000 C.ar         1 ACO162   0.0000
     6 C6A          9.4260    -7.1240   -19.9060 C.ar         1 ACO162   0.0000
     7 N6A          8.4390    -6.4230   -20.5400 N.pl3        1 ACO162   0.0000
     8 N7A         11.4770    -5.9300   -21.0030 N.2          1 ACO162   0.0000
     9 C8A         12.8100    -6.1090   -20.8330 C.2          1 ACO162   0.0000
    10 N9A         13.0540    -7.0960   -19.9400 N.pl3        1 ACO162   0.0000
    11 C1B         14.4000    -7.5420   -19.5140 C.3          1 ACO162   0.0000
    12 C2B         14.4860    -9.0410   -19.6450 C.3          1 ACO162   0.0000
    13 O2B         15.5230    -9.4920   -18.7770 O.3          1 ACO162   0.0000
    14 C3B         14.9190    -9.1850   -21.0770 C.3          1 ACO162   0.0000
    15 O3B         15.6360   -10.3910   -21.2300 O.3          1 ACO162   0.0000
    16 P3B         14.9670   -11.7360   -21.8680 P.3          1 ACO162   0.0000
    17 O7A         14.9780   -11.4930   -23.3730 O.co2        1 ACO162   0.0000
    18 O8A         13.5860   -11.8890   -21.2350 O.co2        1 ACO162  -1.0000
    19 O9A         15.9570   -12.7950   -21.3910 O.co2        1 ACO162  -1.0000
    20 C4B         15.7990    -7.9830   -21.3530 C.3          1 ACO162   0.0000
    21 O4B         15.3750    -6.9960   -20.4090 O.3          1 ACO162   0.0000
    22 C5B         15.5550    -7.4540   -22.7400 C.3          1 ACO162   0.0000
    23 O5B         16.4890    -6.4210   -22.9800 O.3          1 ACO162   0.0000
    24 P1A         16.0550    -5.0990   -23.7710 P.3          1 ACO162   0.0000
    25 O1A         15.0590    -5.4690   -24.8670 O.co2        1 ACO162   0.0000
    26 O2A         17.3720    -4.4240   -24.0540 O.co2        1 ACO162  -1.0000
    27 O3A         15.2600    -4.3450   -22.6080 O.3          1 ACO162   0.0000
    28 P2A         14.3810    -2.9840   -22.7280 P.3          1 ACO162   0.0000
    29 O4A         12.9790    -3.3590   -22.2440 O.co2        1 ACO162   0.0000
    30 O5A         14.6570    -2.3220   -24.0600 O.co2        1 ACO162  -1.0000
    31 O6A         14.9750    -2.0140   -21.5620 O.3          1 ACO162   0.0000
    32 CBP         14.4230    -1.5380   -19.2340 C.3          1 ACO162   0.0000
    33 CCP         15.1380    -2.4560   -20.2090 C.3          1 ACO162   0.0000
    34 CDP         14.7090    -1.9960   -17.7990 C.3          1 ACO162   0.0000
    35 CEP         14.8970    -0.1060   -19.4850 C.3          1 ACO162   0.0000
    36 CAP         12.9280    -1.6610   -19.5410 C.3          1 ACO162   0.0000
    37 OAP         12.5870    -3.0490   -19.4760 O.3          1 ACO162   0.0000
    38 C9P         12.0560    -0.8410   -18.6130 C.2          1 ACO162   0.0000
    39 O9P         11.8760     0.3510   -18.8340 O.2          1 ACO162   0.0000
    40 N8P         11.4950    -1.4630   -17.5640 N.am         1 ACO162   0.0000
    41 C7P         10.7500    -0.7810   -16.5070 C.3          1 ACO162   0.0000
    42 C6P         11.4830     0.3840   -15.8420 C.3          1 ACO162   0.0000
    43 C5P         12.7120    -0.1170   -15.0940 C.2          1 ACO162   0.0000
    44 O5P         12.6120    -1.1300   -14.3950 O.2          1 ACO162   0.0000
    45 N4P         13.8500     0.5820   -15.2430 N.am         1 ACO162   0.0000
    46 C3P         15.0020     0.4940   -14.3750 C.3          1 ACO162   0.0000
    47 C2P         14.7770     1.2920   -13.0750 C.3          1 ACO162   0.0000
    48 S1P         16.2590     1.3110   -12.0990 S.3          1 ACO162   0.0000
    49 C           17.1760     2.6170   -12.6330 C.2          1 ACO162   0.0000
    50 O           16.6690     3.4010   -13.4310 O.2          1 ACO162   0.0000
    51 CH3         18.5790     2.8060   -12.1420 C.3          1 ACO162   0.0000
    52 H2A          9.9247    -9.5042   -17.7289 H            1 ACO162   0.0000
    53 H6A1         8.6768    -5.7053   -21.1945 H            1 ACO162   0.0000
    54 H6A2         7.4789    -6.6278   -20.3495 H            1 ACO162   0.0000
    55 H8A         13.5177    -5.5825   -21.3041 H            1 ACO162   0.0000
    56 H1B         14.5853    -7.2580   -18.5732 H            1 ACO162   0.0000
    57 H2B         13.6120    -9.4915   -19.4627 H            1 ACO162   0.0000
    58 H7          15.3039    -9.2368   -17.8352 H            1 ACO162   0.0000
    59 H3B         14.1226    -9.1769   -21.6817 H            1 ACO162   0.0000
    60 H4B         16.7641    -8.2100   -21.2225 H            1 ACO162   0.0000
    61 H5B1        14.6246    -7.0936   -22.8077 H            1 ACO162   0.0000
    62 H5B2        15.6784    -8.1863   -23.4098 H            1 ACO162   0.0000
    63 HCP1        16.1129    -2.4699   -19.9869 H            1 ACO162   0.0000
    64 HCP2        14.7629    -3.3788   -20.1212 H            1 ACO162   0.0000
    65 HDP1        14.2383    -1.3917   -17.1562 H            1 ACO162   0.0000
    66 HDP2        14.3815    -2.9329   -17.6766 H            1 ACO162   0.0000
    67 HDP3        15.6937    -1.9621   -17.6283 H            1 ACO162   0.0000
    68 HEP1        14.4355     0.5139   -18.8504 H            1 ACO162   0.0000
    69 HEP2        15.8855    -0.0525   -19.3437 H            1 ACO162   0.0000
    70 HEP3        14.6799     0.1570   -20.4251 H            1 ACO162   0.0000
    71 HAP         12.7736    -1.3442   -20.4768 H            1 ACO162   0.0000
    72 H21         12.7035    -3.4635   -20.3786 H            1 ACO162   0.0000
    73 H8P         11.5929    -2.4562   -17.5016 H            1 ACO162   0.0000
    74 H7P1        10.5312    -1.4531   -15.7996 H            1 ACO162   0.0000
    75 H7P2         9.9031    -0.4274   -16.9041 H            1 ACO162   0.0000
    76 H6P1        10.8665     0.8357   -15.1971 H            1 ACO162   0.0000
    77 H6P2        11.7682     1.0370   -16.5436 H            1 ACO162   0.0000
    78 H4P         13.9040     1.2136   -16.0164 H            1 ACO162   0.0000
    79 H3P1        15.7996     0.8637   -14.8517 H            1 ACO162   0.0000
    80 H3P2        15.1659    -0.4654   -14.1455 H            1 ACO162   0.0000
    81 H2P1        14.0413     0.8652   -12.5492 H            1 ACO162   0.0000
    82 H2P2        14.5212     2.2311   -13.3046 H            1 ACO162   0.0000
    83 HH31        18.9707     3.6259   -12.5596 H            1 ACO162   0.0000
    84 HH32        18.5730     2.9089   -11.1473 H            1 ACO162   0.0000
    85 HH33        19.1296     2.0094   -12.3914 H            1 ACO162   0.0000
@<TRIPOS>BOND
     1    1    2      ar
     2    1    6      ar
     3    2    3      ar
     4    3    4      ar
     5    4    5      ar
     6    4   10       1
     7    5    6      ar
     8    5    8       1
     9    6    7       1
    10    8    9       2
    11    9   10       1
    12   10   11       1
    13   11   12       1
    14   11   21       1
    15   12   13       1
    16   12   14       1
    17   14   15       1
    18   14   20       1
    19   15   16       1
    20   16   17      ar
    21   16   18      ar
    22   16   19      ar
    23   20   21       1
    24   20   22       1
    25   22   23       1
    26   23   24       1
    27   24   25      ar
    28   24   26      ar
    29   24   27       1
    30   27   28       1
    31   28   29      ar
    32   28   30      ar
    33   28   31       1
    34   31   33       1
    35   32   33       1
    36   32   34       1
    37   32   35       1
    38   32   36       1
    39   36   37       1
    40   36   38       1
    41   38   39       2
    42   38   40      am
    43   40   41       1
    44   41   42       1
    45   42   43       1
    46   43   44       2
    47   43   45      am
    48   45   46       1
    49   46   47       1
    50   47   48       1
    51   48   49       1
    52   49   50       2
    53   49   51       1
    54    2   52       1
    55    7   53       1
    56    7   54       1
    57    9   55       1
    58   11   56       1
    59   12   57       1
    60   13   58       1
    61   14   59       1
    62   51   85       1
    63   51   84       1
    64   20   60       1
    65   22   61       1
    66   22   62       1
    67   51   83       1
    68   47   82       1
    69   33   63       1
    70   33   64       1
    71   34   65       1
    72   34   66       1
    73   34   67       1
    74   35   68       1
    75   35   69       1
    76   35   70       1
    77   36   71       1
    78   37   72       1
    79   40   73       1
    80   41   74       1
    81   41   75       1
    82   42   76       1
    83   42   77       1
    84   45   78       1
    85   46   79       1
    86   46   80       1
    87   47   81       1
@<TRIPOS>SUBSTRUCTURE
     1 ACO162      1 GROUP             4 A     ACO     0 **** ACO A 162
