@<TRIPOS>MOLECULE
1t44_ATP_1_ligand
   43    45     1     0     0
SMALL
NO_CHARGES


@<TRIPOS>ATOM
     1 PG           2.8120    -1.4100    13.7870 P.3          1 ATP900   0.0000
     2 O1G          3.6010    -2.6340    13.5420 O.co2        1 ATP900   0.0000
     3 O2G          1.6540    -1.3150    12.7850 O.co2        1 ATP900  -1.0000
     4 O3G          2.2810    -1.3500    15.2320 O.co2        1 ATP900  -1.0000
     5 PB           4.7140     0.7030    14.3850 P.3          1 ATP900   0.0000
     6 O1B          5.9620     0.9600    13.6580 O.co2        1 ATP900   0.0000
     7 O2B          4.9310     0.0270    15.7310 O.co2        1 ATP900  -1.0000
     8 O3B          3.7900    -0.1670    13.4200 O.3          1 ATP900   0.0000
     9 PA           3.9500     3.2830    15.4720 P.3          1 ATP900   0.0000
    10 O1A          3.0210     3.0800    16.5950 O.co2        1 ATP900   0.0000
    11 O2A          5.4070     3.4810    15.9040 O.co2        1 ATP900  -1.0000
    12 O3A          3.8190     2.0420    14.4440 O.3          1 ATP900   0.0000
    13 O5'          3.3880     4.4980    14.5680 O.3          1 ATP900   0.0000
    14 C5'          3.9270     4.8410    13.3030 C.3          1 ATP900   0.0000
    15 C4'          2.7910     5.3140    12.4020 C.3          1 ATP900   0.0000
    16 O4'          2.0770     6.3670    13.0320 O.3          1 ATP900   0.0000
    17 C3'          3.2260     5.8580    11.0500 C.3          1 ATP900   0.0000
    18 O3'          2.3130     5.4140    10.0450 O.3          1 ATP900   0.0000
    19 C2'          3.1650     7.3560    11.2530 C.3          1 ATP900   0.0000
    20 O2'          3.0390     8.1280    10.0930 O.3          1 ATP900   0.0000
    21 C1'          1.9430     7.4640    12.1520 C.3          1 ATP900   0.0000
    22 N9           1.9240     8.7070    12.9180 N.pl3        1 ATP900   0.0000
    23 C8           2.8960     9.1770    13.7710 C.2          1 ATP900   0.0000
    24 N7           2.4940    10.3590    14.2890 N.2          1 ATP900   0.0000
    25 C5           1.2820    10.6610    13.7580 C.ar         1 ATP900   0.0000
    26 C6           0.4180    11.7490    13.9110 C.ar         1 ATP900   0.0000
    27 N6           0.7380    12.8080    14.6510 N.pl3        1 ATP900   0.0000
    28 N1          -0.7750    11.7570    13.2430 N.ar         1 ATP900   0.0000
    29 C2          -1.1100    10.7210    12.4110 C.ar         1 ATP900   0.0000
    30 N3          -0.2550     9.6450    12.2210 N.ar         1 ATP900   0.0000
    31 C4           0.9150     9.6200    12.9050 C.ar         1 ATP900   0.0000
    32 H5'1         4.3684     4.0409    12.8967 H            1 ATP900   0.0000
    33 H5'2         4.5990     5.5737    13.4106 H            1 ATP900   0.0000
    34 H4'          2.1643     4.5495    12.2513 H            1 ATP900   0.0000
    35 H3'          4.1583     5.5675    10.8347 H            1 ATP900   0.0000
    36 H5           2.8056     4.8748     9.3619 H            1 ATP900   0.0000
    37 H2'          3.9742     7.6529    11.7600 H            1 ATP900   0.0000
    38 H7           3.4777     9.0155    10.2339 H            1 ATP900   0.0000
    39 H1'          1.1058     7.3759    11.6122 H            1 ATP900   0.0000
    40 H9           3.7607     8.7180    13.9749 H            1 ATP900   0.0000
    41 H10          0.0955    13.5693    14.7387 H            1 ATP900   0.0000
    42 H11          1.6209    12.8424    15.1193 H            1 ATP900   0.0000
    43 H12         -1.9874    10.7409    11.9317 H            1 ATP900   0.0000
@<TRIPOS>BOND
     1    1    2      ar
     2    1    3      ar
     3    1    4      ar
     4    1    8       1
     5    5    6      ar
     6    5    7      ar
     7    5    8       1
     8    5   12       1
     9    9   10      ar
    10    9   11      ar
    11    9   12       1
    12    9   13       1
    13   13   14       1
    14   14   15       1
    15   15   16       1
    16   15   17       1
    17   16   21       1
    18   17   18       1
    19   17   19       1
    20   19   20       1
    21   19   21       1
    22   21   22       1
    23   22   23       1
    24   22   31       1
    25   23   24       2
    26   24   25       1
    27   25   26      ar
    28   25   31      ar
    29   26   27       1
    30   26   28      ar
    31   28   29      ar
    32   29   30      ar
    33   30   31      ar
    34   29   43       1
    35   27   42       1
    36   27   41       1
    37   23   40       1
    38   14   32       1
    39   14   33       1
    40   15   34       1
    41   17   35       1
    42   18   36       1
    43   19   37       1
    44   20   38       1
    45   21   39       1
@<TRIPOS>SUBSTRUCTURE
     1 ATP900      1 GROUP             4 A     ATP     0 **** ATP A 900
