@<TRIPOS>MOLECULE
2ozg_COA_1_ligand
   80    82     1     0     0
SMALL
NO_CHARGES


@<TRIPOS>ATOM
     1 N1A         -9.9380    25.7130     8.3760 N.ar         1 COA500   0.0000
     2 C2A         -9.8330    26.9030     7.7540 C.ar         1 COA500   0.0000
     3 N3A        -10.2300    28.0530     8.3350 N.ar         1 COA500   0.0000
     4 C4A        -10.7630    28.0190     9.5810 C.ar         1 COA500   0.0000
     5 C5A        -10.9030    26.8110    10.2580 C.ar         1 COA500   0.0000
     6 C6A        -10.4700    25.6340     9.6150 C.ar         1 COA500   0.0000
     7 N6A        -10.5510    24.4080    10.1760 N.pl3        1 COA500   0.0000
     8 N7A        -11.4670    27.1140    11.4520 N.2          1 COA500   0.0000
     9 C8A        -11.6690    28.4550    11.5060 C.2          1 COA500   0.0000
    10 N9A        -11.2300    28.9950    10.3570 N.pl3        1 COA500   0.0000
    11 C1B        -11.2220    30.4230     9.9190 C.3          1 COA500   0.0000
    12 C2B        -12.5970    30.8770     9.4350 C.3          1 COA500   0.0000
    13 O2B        -12.8270    30.5660     8.0410 O.3          1 COA500   0.0000
    14 C3B        -12.5900    32.3630     9.7720 C.3          1 COA500   0.0000
    15 O3B        -12.2680    33.1880     8.6440 O.3          1 COA500   0.0000
    16 P3B        -13.4510    33.9360     7.8070 P.3          1 COA500   0.0000
    17 O7A        -13.8310    35.1130     8.6900 O.co2        1 COA500   0.0000
    18 O8A        -12.7860    34.2510     6.4710 O.co2        1 COA500  -1.0000
    19 O9A        -14.5920    32.9310     7.7020 O.co2        1 COA500  -1.0000
    20 C4B        -11.5640    32.5410    10.8880 C.3          1 COA500   0.0000
    21 O4B        -10.8280    31.3140    10.9760 O.3          1 COA500   0.0000
    22 C5B        -12.2170    32.8680    12.2320 C.3          1 COA500   0.0000
    23 O5B        -13.0060    31.7440    12.6490 O.3          1 COA500   0.0000
    24 P1A        -13.3740    31.4230    14.2040 P.3          1 COA500   0.0000
    25 O1A        -12.7520    32.4690    15.0990 O.co2        1 COA500   0.0000
    26 O2A        -14.8850    31.1990    14.2760 O.co2        1 COA500  -1.0000
    27 O3A        -12.6590    29.9660    14.4070 O.3          1 COA500   0.0000
    28 P2A        -13.2120    28.7830    15.3990 P.3          1 COA500   0.0000
    29 O4A        -13.6620    29.4800    16.6860 O.co2        1 COA500   0.0000
    30 O5A        -14.2470    27.9720    14.6220 O.co2        1 COA500  -1.0000
    31 O6A        -11.8360    27.8830    15.6540 O.3          1 COA500   0.0000
    32 CBP        -10.3270    25.8000    15.6820 C.3          1 COA500   0.0000
    33 CCP        -11.7390    26.4260    15.6870 C.3          1 COA500   0.0000
    34 CDP         -9.4300    26.7890    16.4240 C.3          1 COA500   0.0000
    35 CEP         -9.8620    25.8440    14.2290 C.3          1 COA500   0.0000
    36 CAP        -10.3830    24.3670    16.3830 C.3          1 COA500   0.0000
    37 OAP         -9.8770    24.3810    17.7610 O.3          1 COA500   0.0000
    38 C9P         -9.8130    23.0720    15.7400 C.2          1 COA500   0.0000
    39 O9P        -10.4950    22.3680    14.8170 O.2          1 COA500   0.0000
    40 N8P         -8.6600    22.4800    16.1120 N.am         1 COA500   0.0000
    41 C7P         -7.5650    22.7800    17.0360 C.3          1 COA500   0.0000
    42 C6P         -6.3770    22.7770    16.0870 C.3          1 COA500   0.0000
    43 C5P         -5.9660    24.1980    15.7310 C.2          1 COA500   0.0000
    44 O5P         -6.7970    25.0280    15.3680 O.2          1 COA500   0.0000
    45 N4P         -4.6590    24.4920    15.8030 N.am         1 COA500   0.0000
    46 C3P         -4.0400    25.7750    15.4840 C.3          1 COA500   0.0000
    47 C2P         -2.5820    25.6210    15.8570 C.3          1 COA500   0.0000
    48 S1P         -2.3800    25.5260    17.6840 S.3          1 COA500   0.0000
    49 H2A         -9.4482    26.9346     6.8315 H            1 COA500   0.0000
    50 H6A1       -10.9379    24.3019    11.0920 H            1 COA500   0.0000
    51 H6A2       -10.2241    23.6065     9.6753 H            1 COA500   0.0000
    52 H8A        -12.0752    28.9555    12.2705 H            1 COA500   0.0000
    53 H1B        -10.5727    30.5195     9.1646 H            1 COA500   0.0000
    54 H2B        -13.2982    30.4248     9.9861 H            1 COA500   0.0000
    55 H7         -13.4414    31.2480     7.6443 H            1 COA500   0.0000
    56 H3B        -13.4924    32.6219    10.1164 H            1 COA500   0.0000
    57 H4B        -10.9377    33.2804    10.6408 H            1 COA500   0.0000
    58 H5B1       -12.8032    33.6722    12.1339 H            1 COA500   0.0000
    59 H5B2       -11.5089    33.0528    12.9135 H            1 COA500   0.0000
    60 HCP1       -12.2236    26.0762    14.8852 H            1 COA500   0.0000
    61 HCP2       -12.2007    26.1147    16.5176 H            1 COA500   0.0000
    62 HDP1        -8.4954    26.4345    16.4529 H            1 COA500   0.0000
    63 HDP2        -9.4384    27.6685    15.9481 H            1 COA500   0.0000
    64 HDP3        -9.7690    26.9115    17.3568 H            1 COA500   0.0000
    65 HEP1        -8.9458    25.4491    14.1601 H            1 COA500   0.0000
    66 HEP2       -10.4950    25.3187    13.6604 H            1 COA500   0.0000
    67 HEP3        -9.8405    26.7930    13.9145 H            1 COA500   0.0000
    68 HAP        -11.3605    24.1812    16.4828 H            1 COA500   0.0000
    69 H21         -9.9363    23.4605    18.1473 H            1 COA500   0.0000
    70 H8P         -8.5160    21.6136    15.6339 H            1 COA500   0.0000
    71 H7P1        -7.4748    22.0754    17.7399 H            1 COA500   0.0000
    72 H7P2        -7.6854    23.6723    17.4711 H            1 COA500   0.0000
    73 H6P1        -6.6267    22.2887    15.2508 H            1 COA500   0.0000
    74 H6P2        -5.6075    22.3136    16.5265 H            1 COA500   0.0000
    75 H4P         -4.0485    23.7599    16.1051 H            1 COA500   0.0000
    76 H3P1        -4.4617    26.5090    16.0164 H            1 COA500   0.0000
    77 H3P2        -4.1324    25.9752    14.5086 H            1 COA500   0.0000
    78 H2P1        -2.0705    26.4076    15.5112 H            1 COA500   0.0000
    79 H2P2        -2.2248    24.7833    15.4438 H            1 COA500   0.0000
    80 H1P         -2.4325    24.5710    17.9760 H            1 COA500   0.0000
@<TRIPOS>BOND
     1    1    2      ar
     2    1    6      ar
     3    2    3      ar
     4    3    4      ar
     5    4    5      ar
     6    4   10       1
     7    5    6      ar
     8    5    8       1
     9    6    7       1
    10    8    9       2
    11    9   10       1
    12   10   11       1
    13   11   12       1
    14   11   21       1
    15   12   13       1
    16   12   14       1
    17   14   15       1
    18   14   20       1
    19   15   16       1
    20   16   17      ar
    21   16   18      ar
    22   16   19      ar
    23   20   21       1
    24   20   22       1
    25   22   23       1
    26   23   24       1
    27   24   25      ar
    28   24   26      ar
    29   24   27       1
    30   27   28       1
    31   28   29      ar
    32   28   30      ar
    33   28   31       1
    34   31   33       1
    35   32   33       1
    36   32   34       1
    37   32   35       1
    38   32   36       1
    39   36   37       1
    40   36   38       1
    41   38   39       2
    42   38   40      am
    43   40   41       1
    44   41   42       1
    45   42   43       1
    46   43   44       2
    47   43   45      am
    48   45   46       1
    49   46   47       1
    50   47   48       1
    51    2   49       1
    52    7   50       1
    53    7   51       1
    54    9   52       1
    55   11   53       1
    56   12   54       1
    57   13   55       1
    58   14   56       1
    59   48   80       1
    60   47   79       1
    61   20   57       1
    62   22   58       1
    63   22   59       1
    64   47   78       1
    65   46   77       1
    66   33   60       1
    67   33   61       1
    68   34   62       1
    69   34   63       1
    70   34   64       1
    71   35   65       1
    72   35   66       1
    73   35   67       1
    74   36   68       1
    75   37   69       1
    76   40   70       1
    77   41   71       1
    78   41   72       1
    79   42   73       1
    80   42   74       1
    81   45   75       1
    82   46   76       1
@<TRIPOS>SUBSTRUCTURE
     1 COA500      1 GROUP             4 A     COA     0 **** COA A 500
