@<TRIPOS>MOLECULE
4irr_UMP_2_ligand
   31    32     1     0     0
SMALL
NO_CHARGES


@<TRIPOS>ATOM
     1 N1         -62.8200    25.5300   -52.2680 N.pl3        1 UMP401   0.0000
     2 C2         -61.6000    25.4150   -51.5520 C.2          1 UMP401   0.0000
     3 N3         -61.3370    26.2770   -50.5510 N.pl3        1 UMP401   0.0000
     4 C4         -62.1950    27.2640   -50.2200 C.2          1 UMP401   0.0000
     5 C5         -63.3940    27.4020   -50.9170 C.2          1 UMP401   0.0000
     6 C6         -63.6840    26.5120   -51.9470 C.2          1 UMP401   0.0000
     7 O2         -60.7630    24.5200   -51.8380 O.2          1 UMP401   0.0000
     8 O4         -61.9360    28.0530   -49.2780 O.2          1 UMP401   0.0000
     9 C1'        -63.1530    24.6280   -53.3810 C.3          1 UMP401   0.0000
    10 C2'        -63.6310    23.2490   -52.9300 C.3          1 UMP401   0.0000
    11 C3'        -64.7320    22.9330   -53.9270 C.3          1 UMP401   0.0000
    12 C4'        -65.3220    24.2940   -54.2490 C.3          1 UMP401   0.0000
    13 O3'        -64.1590    22.4300   -55.1440 O.3          1 UMP401   0.0000
    14 O4'        -64.2310    25.2070   -54.1340 O.3          1 UMP401   0.0000
    15 C5'        -66.4360    24.6900   -53.2870 C.3          1 UMP401   0.0000
    16 O5'        -67.5400    23.8590   -53.6070 O.3          1 UMP401   0.0000
    17 P          -68.4380    23.1190   -52.4970 P.3          1 UMP401   0.0000
    18 OP1        -69.1030    24.2280   -51.7180 O.co2        1 UMP401   0.0000
    19 OP2        -69.3930    22.3290   -53.3580 O.co2        1 UMP401  -1.0000
    20 OP3        -67.4760    22.2710   -51.7020 O.co2        1 UMP401  -1.0000
    21 H1         -60.4829    26.1828   -50.0395 H            1 UMP401   0.0000
    22 H2         -64.0370    28.1304   -50.6803 H            1 UMP401   0.0000
    23 H3         -64.5416    26.6025   -52.4533 H            1 UMP401   0.0000
    24 H1'        -62.3540    24.5240   -53.9732 H            1 UMP401   0.0000
    25 H2'1       -63.9880    23.2789   -51.9964 H            1 UMP401   0.0000
    26 H2'2       -62.8928    22.5765   -52.9832 H            1 UMP401   0.0000
    27 H3'        -65.4144    22.3084   -53.5472 H            1 UMP401   0.0000
    28 H4'        -65.6685    24.2984   -55.1870 H            1 UMP401   0.0000
    29 H9         -64.8888    22.2240   -55.7958 H            1 UMP401   0.0000
    30 H5'1       -66.6774    25.6524   -53.4117 H            1 UMP401   0.0000
    31 H5'2       -66.1490    24.5382   -52.3412 H            1 UMP401   0.0000
@<TRIPOS>BOND
     1    1    2       1
     2    1    6       1
     3    1    9       1
     4    2    3       1
     5    2    7       2
     6    3    4       1
     7    4    5       1
     8    4    8       2
     9    5    6       2
    10    9   10       1
    11    9   14       1
    12   10   11       1
    13   11   12       1
    14   11   13       1
    15   12   14       1
    16   12   15       1
    17   15   16       1
    18   16   17       1
    19   17   18      ar
    20   17   19      ar
    21   17   20      ar
    22    3   21       1
    23    5   22       1
    24    6   23       1
    25    9   24       1
    26   10   25       1
    27   10   26       1
    28   11   27       1
    29   12   28       1
    30   13   29       1
    31   15   30       1
    32   15   31       1
@<TRIPOS>SUBSTRUCTURE
     1 UMP401      1 GROUP             4 B     UMP     0 **** UMP B 401
