@<TRIPOS>MOLECULE
1nhh_ANP_1_ligand
   44    46     1     0     0
SMALL
NO_CHARGES


@<TRIPOS>ATOM
     1 PG          -3.4630    25.6920    56.5980 P.3          1 ANP380   0.0000
     2 O1G         -2.5020    26.6520    56.0060 O.co2        1 ANP380   0.0000
     3 O2G         -2.8340    24.6930    57.2780 O.co2        1 ANP380  -1.0000
     4 O3G         -4.4450    26.3060    57.5650 O.co2        1 ANP380  -1.0000
     5 PB          -4.2790    23.7270    54.4910 P.3          1 ANP380   0.0000
     6 O1B         -5.2930    23.7990    53.4470 O.co2        1 ANP380   0.0000
     7 O2B         -4.3040    22.4940    55.2070 O.co2        1 ANP380  -1.0000
     8 N3B         -4.4580    25.0620    55.4170 N.3          1 ANP380   0.0000
     9 PA          -1.5360    23.0740    53.7680 P.3          1 ANP380   0.0000
    10 O1A         -1.2290    22.6020    55.0580 O.co2        1 ANP380   0.0000
    11 O2A         -0.5120    23.7930    52.9970 O.co2        1 ANP380  -1.0000
    12 O3A         -2.8630    23.9600    53.8060 O.3          1 ANP380   0.0000
    13 O5'         -1.9370    21.8580    52.8320 O.3          1 ANP380   0.0000
    14 C5'         -2.3270    21.9240    51.5010 C.3          1 ANP380   0.0000
    15 C4'         -3.5010    21.1300    50.9080 C.3          1 ANP380   0.0000
    16 O4'         -2.6380    19.9790    50.6990 O.3          1 ANP380   0.0000
    17 C3'         -4.6290    20.6780    51.8310 C.3          1 ANP380   0.0000
    18 O3'         -5.6870    21.5890    51.7000 O.3          1 ANP380   0.0000
    19 C2'         -4.8490    19.2400    51.3890 C.3          1 ANP380   0.0000
    20 O2'         -5.8440    19.2310    50.3700 O.3          1 ANP380   0.0000
    21 C1'         -3.4110    18.8130    50.9810 C.3          1 ANP380   0.0000
    22 N9          -2.5750    18.0630    51.9980 N.pl3        1 ANP380   0.0000
    23 C8          -1.5090    18.4290    52.8140 C.2          1 ANP380   0.0000
    24 N7          -0.9930    17.5250    53.5990 N.2          1 ANP380   0.0000
    25 C5          -1.7650    16.4390    53.2910 C.ar         1 ANP380   0.0000
    26 C6          -1.8380    15.0160    53.7430 C.ar         1 ANP380   0.0000
    27 N6          -0.9890    14.5410    54.6550 N.pl3        1 ANP380   0.0000
    28 N1          -2.7960    14.1200    53.2000 N.ar         1 ANP380   0.0000
    29 C2          -3.7110    14.5530    52.2360 C.ar         1 ANP380   0.0000
    30 N3          -3.7400    15.8600    51.7460 N.ar         1 ANP380   0.0000
    31 C4          -2.7660    16.7480    52.3040 C.ar         1 ANP380   0.0000
    32 H3B         -5.3303    24.9189    55.8845 H            1 ANP380   0.0000
    33 H5'1        -1.5232    21.6563    50.9697 H            1 ANP380   0.0000
    34 H5'2        -2.5359    22.8864    51.3274 H            1 ANP380   0.0000
    35 H4'         -3.8371    21.5207    50.0510 H            1 ANP380   0.0000
    36 H3'         -4.3035    20.6855    52.7765 H            1 ANP380   0.0000
    37 H6          -5.5764    22.3264    52.3664 H            1 ANP380   0.0000
    38 H2'         -5.1566    18.6911    52.1662 H            1 ANP380   0.0000
    39 H8          -5.4065    19.3278    49.4760 H            1 ANP380   0.0000
    40 H1'         -3.4681    18.2615    50.1488 H            1 ANP380   0.0000
    41 H10         -1.1480    19.3614    52.7987 H            1 ANP380   0.0000
    42 H11         -1.0511    13.5865    54.9467 H            1 ANP380   0.0000
    43 H12         -0.2902    15.1393    55.0472 H            1 ANP380   0.0000
    44 H13         -4.3759    13.8959    51.8808 H            1 ANP380   0.0000
@<TRIPOS>BOND
     1    1    2      ar
     2    1    3      ar
     3    1    4      ar
     4    1    8       1
     5    5    6      ar
     6    5    7      ar
     7    5    8       1
     8    5   12       1
     9    9   10      ar
    10    9   11      ar
    11    9   12       1
    12    9   13       1
    13   13   14       1
    14   14   15       1
    15   15   16       1
    16   15   17       1
    17   16   21       1
    18   17   18       1
    19   17   19       1
    20   19   20       1
    21   19   21       1
    22   21   22       1
    23   22   23       1
    24   22   31       1
    25   23   24       2
    26   24   25       1
    27   25   26      ar
    28   25   31      ar
    29   26   27       1
    30   26   28      ar
    31   28   29      ar
    32   29   30      ar
    33   30   31      ar
    34   29   44       1
    35   27   43       1
    36   27   42       1
    37    8   32       1
    38   23   41       1
    39   14   33       1
    40   14   34       1
    41   15   35       1
    42   17   36       1
    43   18   37       1
    44   19   38       1
    45   20   39       1
    46   21   40       1
@<TRIPOS>SUBSTRUCTURE
     1 ANP380      1 GROUP             4 A     ANP     0 **** ANP A 380
