@<TRIPOS>MOLECULE
3gcn_TYR_GLN_PHE_1_ligand
   62    63     3     0     0
SMALL
NO_CHARGES


@<TRIPOS>ATOM
     1 N            2.3160   -32.0350    10.2370 N.4          1 TYR408   1.0000
     2 CA           1.0830   -32.7360    10.5760 C.3          1 TYR408   0.0000
     3 C            1.0340   -33.0890    12.0600 C.2          1 TYR408   0.0000
     4 O            2.0580   -33.3890    12.6700 O.2          1 TYR408   0.0000
     5 CB           0.9370   -34.0060     9.7350 C.3          1 TYR408   0.0000
     6 CG           0.9440   -33.7620     8.2420 C.ar         1 TYR408   0.0000
     7 CD1         -0.2290   -33.4650     7.5620 C.ar         1 TYR408   0.0000
     8 CD2          2.1240   -33.8320     7.5140 C.ar         1 TYR408   0.0000
     9 CE1         -0.2270   -33.2420     6.1970 C.ar         1 TYR408   0.0000
    10 CE2          2.1360   -33.6110     6.1490 C.ar         1 TYR408   0.0000
    11 CZ           0.9580   -33.3160     5.4960 C.ar         1 TYR408   0.0000
    12 OH           0.9650   -33.0950     4.1380 O.3          1 TYR408   0.0000
    13 H1           2.3943   -31.2092    10.7955 H            1 TYR408   0.0000
    14 H2           3.0984   -32.6323    10.4136 H            1 TYR408   0.0000
    15 HA           0.3121   -32.1330    10.3709 H            1 TYR408   0.0000
    16 HB1          0.0721   -34.4455     9.9774 H            1 TYR408   0.0000
    17 HB2          1.6958   -34.6185     9.9567 H            1 TYR408   0.0000
    18 HD1         -1.0901   -33.4113     8.0676 H            1 TYR408   0.0000
    19 HD2          2.9799   -34.0459     7.9848 H            1 TYR408   0.0000
    20 HE1         -1.0802   -33.0283     5.7212 H            1 TYR408   0.0000
    21 HE2          2.9941   -33.6648     5.6384 H            1 TYR408   0.0000
    22 HH           1.8231   -33.1481     3.6272 H            1 TYR408   0.0000
    23 N           -0.1640   -33.0470    12.6330 N.am         2 GLN409   0.0000
    24 CA          -0.3610   -33.4050    14.0330 C.3          2 GLN409   0.0000
    25 C           -1.7180   -34.0600    14.2320 C.2          2 GLN409   0.0000
    26 O           -2.7000   -33.3870    14.5430 O.2          2 GLN409   0.0000
    27 CB          -0.2550   -32.1710    14.9310 C.3          2 GLN409   0.0000
    28 CG           1.1510   -31.6290    15.0980 C.3          2 GLN409   0.0000
    29 CD           1.2360   -30.5700    16.1790 C.2          2 GLN409   0.0000
    30 OE1          0.3320   -30.4340    17.0040 O.2          2 GLN409   0.0000
    31 NE2          2.3280   -29.8150    16.1830 N.am         2 GLN409   0.0000
    32 H11         -0.9530   -32.7618    12.0888 H            2 GLN409   0.0000
    33 H12          0.3500   -34.0559    14.2993 H            2 GLN409   0.0000
    34 H13         -0.6052   -32.4130    15.8359 H            2 GLN409   0.0000
    35 H14         -0.8226   -31.4486    14.5362 H            2 GLN409   0.0000
    36 HG1          1.4457   -31.2275    14.2309 H            2 GLN409   0.0000
    37 HG2          1.7600   -32.3844    15.3396 H            2 GLN409   0.0000
    38 HE21         2.4389   -29.0999    16.8732 H            2 GLN409   0.0000
    39 HE22         3.0396   -29.9614    15.4958 H            2 GLN409   0.0000
    40 N           -1.7690   -35.3760    14.0530 N.am         3 PHE410   0.0000
    41 CA          -3.0100   -36.1200    14.2330 C.3          3 PHE410   0.0000
    42 C           -2.9070   -37.1070    15.3940 C.2          3 PHE410   0.0000
    43 O           -3.9120   -37.6150    15.8930 O.2          3 PHE410   0.0000
    44 CB          -3.3920   -36.8490    12.9430 C.3          3 PHE410   0.0000
    45 CG          -2.4140   -37.9100    12.5340 C.ar         3 PHE410   0.0000
    46 CD1         -1.2870   -37.5860    11.7960 C.ar         3 PHE410   0.0000
    47 CD2         -2.6240   -39.2330    12.8820 C.ar         3 PHE410   0.0000
    48 CE1         -0.3870   -38.5610    11.4170 C.ar         3 PHE410   0.0000
    49 CE2         -1.7280   -40.2130    12.5050 C.ar         3 PHE410   0.0000
    50 CZ          -0.6080   -39.8760    11.7720 C.ar         3 PHE410   0.0000
    51 OXT         -1.8130   -37.4170    15.8630 O.3          3 PHE410   0.0000
    52 H19         -0.9384   -35.8664    13.7892 H            3 PHE410   0.0000
    53 H20         -3.7356   -35.4657    14.4458 H            3 PHE410   0.0000
    54 H21         -3.4525   -36.1754    12.2064 H            3 PHE410   0.0000
    55 H22         -4.2853   -37.2783    13.0763 H            3 PHE410   0.0000
    56 H23         -1.1239   -36.6345    11.5350 H            3 PHE410   0.0000
    57 H24         -3.4342   -39.4818    13.4127 H            3 PHE410   0.0000
    58 H25          0.4239   -38.3150    10.8860 H            3 PHE410   0.0000
    59 H26         -1.8900   -41.1656    12.7625 H            3 PHE410   0.0000
    60 HZ           0.0428   -40.5843    11.4984 H            3 PHE410   0.0000
    61 H28          2.3009   -31.7829     9.2694 H            3 PHE410   0.0000
    62 HXT         -0.9763   -37.0215    15.4841 H            3 PHE410   0.0000
@<TRIPOS>BOND
     1    1    2       1
     2    2    5       1
     3    2    3       1
     4    5    6       1
     5    6    7      ar
     6    6    8      ar
     7    7    9      ar
     8    9   11      ar
     9   11   12       1
    10   11   10      ar
    11   10    8      ar
    12    3    4       2
    13    1   13       1
    14    1   14       1
    15    2   15       1
    16    3   23      am
    17    5   16       1
    18    5   17       1
    19    7   18       1
    20    8   19       1
    21    9   20       1
    22   10   21       1
    23   12   22       1
    24   23   24       1
    25   24   27       1
    26   24   25       1
    27   27   28       1
    28   28   29       1
    29   29   30       2
    30   29   31      am
    31   25   26       2
    32   31   39       1
    33   23   32       1
    34   24   33       1
    35   25   40      am
    36   27   34       1
    37   27   35       1
    38   28   36       1
    39   28   37       1
    40   31   38       1
    41   40   41       1
    42   41   44       1
    43   41   42       1
    44   44   45       1
    45   45   46      ar
    46   45   47      ar
    47   46   48      ar
    48   48   50      ar
    49   50   49      ar
    50   49   47      ar
    51   42   43       2
    52   42   51       1
    53   50   60       1
    54   40   52       1
    55   41   53       1
    56   44   54       1
    57   44   55       1
    58   46   56       1
    59   47   57       1
    60   48   58       1
    61   49   59       1
    62    1   61       1
    63   51   62       1
@<TRIPOS>SUBSTRUCTURE
     1 TYR408      1 RESIDUE           4 B     TYR     0 **** TYR B 408
     2 GLN409     23 RESIDUE           4 B     GLN     0 **** GLN B 409
     3 PHE410     40 RESIDUE           4 B     PHE     0 **** PHE B 410
