@<TRIPOS>MOLECULE
5g53_NEC_2_ligand
   38    40     1     0     0
SMALL
USER_CHARGES


@<TRIPOS>ATOM
     1 C5'        -36.2830     7.5820    34.3960 C.2          1 NEC400   0.0000
     2 O5'        -36.9440     6.7160    34.9450 O.2          1 NEC400   0.0000
     3 N5'        -36.5160     8.8830    34.5730 N.am         1 NEC400   0.0000
     4 C51        -37.5610     9.3650    35.4580 C.3          1 NEC400   0.0000
     5 C52        -37.5160    10.8630    35.6420 C.3          1 NEC400   0.0000
     6 C4'        -35.1280     7.2320    33.5010 C.3          1 NEC400   0.0000
     7 O4'        -33.9870     7.0620    34.3430 O.3          1 NEC400   0.0000
     8 C3'        -35.3020     5.9460    32.6900 C.3          1 NEC400   0.0000
     9 O3'        -35.5540     6.2170    31.3080 O.3          1 NEC400   0.0000
    10 C2'        -34.0080     5.1750    32.9040 C.3          1 NEC400   0.0000
    11 O2'        -33.0960     5.3040    31.8060 O.3          1 NEC400   0.0000
    12 C1'        -33.3840     5.7780    34.1630 C.3          1 NEC400   0.0000
    13 N9         -33.6090     4.8890    35.3420 N.pl3        1 NEC400   0.0000
    14 C8         -34.4730     5.0670    36.3680 C.2          1 NEC400   0.0000
    15 N7         -34.3950     4.0380    37.2480 N.2          1 NEC400   0.0000
    16 C5         -33.4720     3.1830    36.7870 C.ar         1 NEC400   0.0000
    17 C6         -32.8930     1.8970    37.2230 C.ar         1 NEC400   0.0000
    18 N6         -33.3170     1.3190    38.3700 N.pl3        1 NEC400   0.0000
    19 N1         -31.9360     1.3270    36.4490 N.ar         1 NEC400   0.0000
    20 C2         -31.5080     1.8990    35.3050 C.ar         1 NEC400   0.0000
    21 N3         -31.9940     3.0730    34.8520 N.ar         1 NEC400   0.0000
    22 C4         -32.9520     3.7470    35.5370 C.ar         1 NEC400   0.0000
    23 H5'        -35.9534     9.5473    34.0808 H            1 NEC400   0.0000
    24 H2         -37.4517     8.9286    36.3511 H            1 NEC400   0.0000
    25 H3         -38.4490     9.1157    35.0716 H            1 NEC400   0.0000
    26 H4         -38.2521    11.1456    36.2571 H            1 NEC400   0.0000
    27 H5         -36.6344    11.1242    36.0351 H            1 NEC400   0.0000
    28 H6         -37.6317    11.3113    34.7557 H            1 NEC400   0.0000
    29 H4'        -34.9597     7.9925    32.8738 H            1 NEC400   0.0000
    30 H3'        -36.0646     5.4201    33.0666 H            1 NEC400   0.0000
    31 H9         -36.1184     5.4869    30.9227 H            1 NEC400   0.0000
    32 H2'        -34.2134     4.2088    33.0595 H            1 NEC400   0.0000
    33 H11        -33.6108     5.4348    30.9587 H            1 NEC400   0.0000
    34 H1'        -32.4009     5.8931    34.0204 H            1 NEC400   0.0000
    35 H13        -35.0861     5.8511    36.4644 H            1 NEC400   0.0000
    36 H14        -32.9249     0.4478    38.6656 H            1 NEC400   0.0000
    37 H15        -34.0226     1.7628    38.9225 H            1 NEC400   0.0000
    38 H16        -30.8018     1.4340    34.7710 H            1 NEC400   0.0000
@<TRIPOS>BOND
     1    1    2       2
     2    1    3      am
     3    1    6       1
     4    3    4       1
     5    4    5       1
     6    6    7       1
     7    6    8       1
     8    7   12       1
     9    8    9       1
    10    8   10       1
    11   10   11       1
    12   10   12       1
    13   12   13       1
    14   13   14       1
    15   13   22       1
    16   14   15       2
    17   15   16       1
    18   16   17      ar
    19   16   22      ar
    20   17   18       1
    21   17   19      ar
    22   19   20      ar
    23   20   21      ar
    24   21   22      ar
    25    3   23       1
    26    4   24       1
    27    4   25       1
    28    5   26       1
    29    5   27       1
    30    5   28       1
    31    6   29       1
    32    8   30       1
    33    9   31       1
    34   10   32       1
    35   11   33       1
    36   12   34       1
    37   14   35       1
    38   18   36       1
    39   18   37       1
    40   20   38       1
@<TRIPOS>SUBSTRUCTURE
     1 NEC400      1 GROUP             4 B     NEC     0 **** NEC B 400
