@<TRIPOS>MOLECULE
3sqx_ANP_1_ligand
   43    45     1     0     0
SMALL
NO_CHARGES


@<TRIPOS>ATOM
     1 PG          71.1960    27.9730    16.7580 P.3          1 ANP800   0.0000
     2 O1G         71.9050    28.4580    15.5230 O.co2        1 ANP800   0.0000
     3 O2G         72.1010    27.7300    17.9460 O.co2        1 ANP800  -1.0000
     4 O3G         70.2680    26.7920    16.5090 O.co2        1 ANP800  -1.0000
     5 PB          70.4890    30.9350    17.1900 P.3          1 ANP800   0.0000
     6 O1B         71.4890    31.2350    16.1120 O.co2        1 ANP800   0.0000
     7 O2B         70.8550    31.2840    18.6140 O.co2        1 ANP800  -1.0000
     8 N3B         70.0960    29.2390    17.1670 N.3          1 ANP800  -1.0000
     9 PA          68.7230    32.4490    15.5300 P.3          1 ANP800   0.0000
    10 O1A         69.6640    33.6120    15.4630 O.co2        1 ANP800   0.0000
    11 O2A         68.5950    31.5420    14.3310 O.co2        1 ANP800  -1.0000
    12 O3A         69.0550    31.6090    16.8680 O.3          1 ANP800   0.0000
    13 O5'         67.2760    33.0630    15.8830 O.3          1 ANP800   0.0000
    14 C5'         66.1360    32.2270    16.0650 C.3          1 ANP800   0.0000
    15 C4'         64.8290    32.9630    15.8040 C.3          1 ANP800   0.0000
    16 O4'         64.6710    33.9700    16.8060 O.3          1 ANP800   0.0000
    17 C3'         64.7880    33.6770    14.4590 C.3          1 ANP800   0.0000
    18 O3'         63.6210    33.2930    13.7390 O.3          1 ANP800   0.0000
    19 C2'         64.7400    35.1660    14.7880 C.3          1 ANP800   0.0000
    20 O2'         63.8160    35.8890    13.9750 O.3          1 ANP800   0.0000
    21 C1'         64.2560    35.1960    16.2180 C.3          1 ANP800   0.0000
    22 N9          64.8120    36.3030    17.0250 N.pl3        1 ANP800   0.0000
    23 C8          66.0450    36.8360    16.9600 C.2          1 ANP800   0.0000
    24 N7          66.1820    37.8160    17.8810 N.2          1 ANP800   0.0000
    25 C5          65.0200    37.9140    18.5530 C.ar         1 ANP800   0.0000
    26 C6          64.4860    38.7520    19.6490 C.ar         1 ANP800   0.0000
    27 N6          65.2590    39.6940    20.2210 N.pl3        1 ANP800   0.0000
    28 N1          63.2250    38.5250    20.0650 N.ar         1 ANP800   0.0000
    29 C2          62.4520    37.5770    19.5010 C.ar         1 ANP800   0.0000
    30 N3          62.8760    36.7870    18.4870 N.ar         1 ANP800   0.0000
    31 C4          64.1230    36.9100    17.9880 C.ar         1 ANP800   0.0000
    32 H5'1        66.1321    31.8896    17.0064 H            1 ANP800   0.0000
    33 H5'2        66.2007    31.4538    15.4341 H            1 ANP800   0.0000
    34 H4'         64.0677    32.3170    15.8600 H            1 ANP800   0.0000
    35 H3'         65.6087    33.4651    13.9284 H            1 ANP800   0.0000
    36 H5          63.8245    32.4908    13.1778 H            1 ANP800   0.0000
    37 H2'         65.6532    35.5679    14.7202 H            1 ANP800   0.0000
    38 H7          63.3725    35.2611    13.3354 H            1 ANP800   0.0000
    39 H1'         63.2574    35.2473    16.2287 H            1 ANP800   0.0000
    40 H9          66.7588    36.5484    16.3214 H            1 ANP800   0.0000
    41 H10         64.8941    40.2583    20.9616 H            1 ANP800   0.0000
    42 H11         66.1982    39.8295    19.9054 H            1 ANP800   0.0000
    43 H12         61.5224    37.4511    19.8473 H            1 ANP800   0.0000
@<TRIPOS>BOND
     1    1    2      ar
     2    1    3      ar
     3    1    4      ar
     4    1    8       1
     5    5    6      ar
     6    5    7      ar
     7    5    8       1
     8    5   12       1
     9    9   10      ar
    10    9   11      ar
    11    9   12       1
    12    9   13       1
    13   13   14       1
    14   14   15       1
    15   15   16       1
    16   15   17       1
    17   16   21       1
    18   17   18       1
    19   17   19       1
    20   19   20       1
    21   19   21       1
    22   21   22       1
    23   22   23       1
    24   22   31       1
    25   23   24       2
    26   24   25       1
    27   25   26      ar
    28   25   31      ar
    29   26   27       1
    30   26   28      ar
    31   28   29      ar
    32   29   30      ar
    33   30   31      ar
    34   29   43       1
    35   27   42       1
    36   27   41       1
    37   21   39       1
    38   23   40       1
    39   14   32       1
    40   14   33       1
    41   15   34       1
    42   17   35       1
    43   18   36       1
    44   19   37       1
    45   20   38       1
@<TRIPOS>SUBSTRUCTURE
     1 ANP800      1 GROUP             4 A     ANP     0 **** ANP A 800
