@<TRIPOS>MOLECULE
2xxv_KAI_1_ligand
   31    31     1     0     0
SMALL
NO_CHARGES


@<TRIPOS>ATOM
     1 N          -28.7110    34.4800     7.8990 N.4          1 KAI900   1.0000
     2 CD         -29.0990    33.1460     7.3690 C.3          1 KAI900   0.0000
     3 CD1        -29.0030    30.7340     5.6970 C.3          1 KAI900   0.0000
     4 CD2        -29.2680    32.1850     3.6010 C.3          1 KAI900   0.0000
     5 CA         -28.3340    35.3200     6.7590 C.3          1 KAI900   0.0000
     6 CB         -28.1360    34.3840     5.5820 C.3          1 KAI900   0.0000
     7 CB1        -26.7490    33.7400     5.6000 C.3          1 KAI900   0.0000
     8 CG         -29.1690    33.3110     5.8580 C.3          1 KAI900   0.0000
     9 CG1        -25.6490    34.6380     5.0690 C.2          1 KAI900   0.0000
    10 CG2        -28.7640    32.0830     5.0400 C.3          1 KAI900   0.0000
    11 C          -29.4240    36.3260     6.5180 C.2          1 KAI900   0.0000
    12 O          -30.2420    36.6040     7.4170 O.co2        1 KAI900   0.0000
    13 OD1        -24.4390    34.3000     5.2220 O.co2        1 KAI900   0.0000
    14 OD2        -25.9820    35.6730     4.4670 O.co2        1 KAI900  -1.0000
    15 OXT        -29.5070    36.9170     5.4320 O.co2        1 KAI900  -1.0000
    16 H1         -27.9359    34.3859     8.5238 H            1 KAI900   0.0000
    17 HD1        -29.9896    32.8717     7.7319 H            1 KAI900   0.0000
    18 HD2        -28.4137    32.4602     7.6139 H            1 KAI900   0.0000
    19 HD11       -28.6462    30.7502     6.6310 H            1 KAI900   0.0000
    20 HD12       -29.9843    30.5428     5.7183 H            1 KAI900   0.0000
    21 HD13       -28.5358    30.0211     5.1740 H            1 KAI900   0.0000
    22 HD21       -29.0733    33.0984     3.2436 H            1 KAI900   0.0000
    23 HD22       -28.8060    31.5008     3.0367 H            1 KAI900   0.0000
    24 HD23       -30.2545    32.0225     3.5810 H            1 KAI900   0.0000
    25 HA         -27.4768    35.7943     6.9595 H            1 KAI900   0.0000
    26 HB         -28.3128    34.8467     4.7133 H            1 KAI900   0.0000
    27 HB11       -26.7785    32.9126     5.0391 H            1 KAI900   0.0000
    28 HB12       -26.5276    33.4951     6.5439 H            1 KAI900   0.0000
    29 HG         -30.0780    33.6257     5.5849 H            1 KAI900   0.0000
    30 HG2        -27.7693    32.1509     4.9623 H            1 KAI900   0.0000
    31 H16        -29.4825    34.8911     8.3845 H            1 KAI900   0.0000
@<TRIPOS>BOND
     1    1    2       1
     2    1    5       1
     3    2    8       1
     4    3   10       1
     5    4   10       1
     6    5    6       1
     7    5   11       1
     8    6    7       1
     9    6    8       1
    10    7    9       1
    11    8   10       1
    12    9   13      ar
    13    9   14      ar
    14   11   12      ar
    15   11   15      ar
    16    1   16       1
    17    2   17       1
    18    2   18       1
    19    3   19       1
    20    3   20       1
    21    3   21       1
    22    4   22       1
    23    4   23       1
    24    4   24       1
    25    5   25       1
    26    6   26       1
    27    7   27       1
    28    7   28       1
    29    8   29       1
    30   10   30       1
    31    1   31       1
@<TRIPOS>SUBSTRUCTURE
     1 KAI900      1 GROUP             4 A     KAI     0 **** KAI A 900
