@<TRIPOS>MOLECULE
4zj8_SUV_1_ligand
   55    59     1     0     0
SMALL
USER_CHARGES


@<TRIPOS>ATOM
     1 C1          -8.0670    -1.5380   -55.0270 C.2          1 SUV2001   0.0000
     2 N1          -9.1820    -0.8810   -54.7610 N.pl3        1 SUV2001   0.0000
     3 O1          -7.4280    -2.0600   -53.9480 O.2          1 SUV2001   0.0000
     4 CL1         -3.0280    -4.3530   -56.9700 Cl           1 SUV2001   0.0000
     5 N2          -7.5010    -1.7520   -56.1770 N.2          1 SUV2001   0.0000
     6 O2          -7.7730     3.0020   -55.0760 O.2          1 SUV2001   0.0000
     7 C3          -6.3620    -2.4940   -55.8530 C.ar         1 SUV2001   0.0000
     8 N3          -9.0870     1.6180   -53.9070 N.am         1 SUV2001   0.0000
     9 C4          -5.3470    -3.0150   -56.6460 C.ar         1 SUV2001   0.0000
    10 N4          -7.4890     2.7860   -51.2700 N.pl3        1 SUV2001   0.0000
    11 C5          -4.3280    -3.7050   -56.0090 C.ar         1 SUV2001   0.0000
    12 N5          -7.9640     2.3380   -50.1040 N.2          1 SUV2001   0.0000
    13 C6          -4.3010    -3.8890   -54.6310 C.ar         1 SUV2001   0.0000
    14 N6          -8.0020     3.9510   -51.6840 N.2          1 SUV2001   0.0000
    15 C7          -5.3200    -3.3660   -53.8500 C.ar         1 SUV2001   0.0000
    16 C8          -6.3260    -2.6770   -54.4920 C.ar         1 SUV2001   0.0000
    17 C11         -9.6570    -0.7180   -53.3820 C.3          1 SUV2001   0.0000
    18 C12         -9.3210     0.6270   -52.8530 C.3          1 SUV2001   0.0000
    19 C14        -10.2460     2.0030   -54.7390 C.3          1 SUV2001   0.0000
    20 C15        -10.9600     0.7950   -55.3290 C.3          1 SUV2001   0.0000
    21 C16         -9.9960    -0.2810   -55.8250 C.3          1 SUV2001   0.0000
    22 C17         -7.8930     2.1780   -54.1880 C.2          1 SUV2001   0.0000
    23 C19         -6.6950     1.7630   -53.3800 C.ar         1 SUV2001   0.0000
    24 C20         -6.5080     2.0750   -52.0250 C.ar         1 SUV2001   0.0000
    25 C21         -5.3440     1.6760   -51.3790 C.ar         1 SUV2001   0.0000
    26 C22         -4.3780     0.9720   -52.0730 C.ar         1 SUV2001   0.0000
    27 C23         -4.5380     0.6460   -53.4100 C.ar         1 SUV2001   0.0000
    28 C24         -5.7010     1.0470   -54.0480 C.ar         1 SUV2001   0.0000
    29 C27         -8.8430     3.2540   -49.7200 C.2          1 SUV2001   0.0000
    30 C28         -8.8670     4.2950   -50.7400 C.2          1 SUV2001   0.0000
    31 C29         -3.4750    -0.1270   -54.1530 C.3          1 SUV2001   0.0000
    32 C30        -11.2080     2.9020   -53.9830 C.3          1 SUV2001   0.0000
    33 H1          -5.3517    -2.8965   -57.6389 H            1 SUV2001   0.0000
    34 H2          -3.5509    -4.3956   -54.2058 H            1 SUV2001   0.0000
    35 H3          -5.3248    -3.4844   -52.8570 H            1 SUV2001   0.0000
    36 H4          -9.2268    -1.4121   -52.8048 H            1 SUV2001   0.0000
    37 H5         -10.6497    -0.8372   -53.3629 H            1 SUV2001   0.0000
    38 H6         -10.0788     0.9427   -52.2820 H            1 SUV2001   0.0000
    39 H7          -8.4932     0.5525   -52.2969 H            1 SUV2001   0.0000
    40 H8          -9.8903     2.5359   -55.5068 H            1 SUV2001   0.0000
    41 H9         -11.5209     1.1002   -56.0985 H            1 SUV2001   0.0000
    42 H10        -11.5481     0.3967   -54.6251 H            1 SUV2001   0.0000
    43 H11        -10.5294    -1.0058   -56.2610 H            1 SUV2001   0.0000
    44 H12         -9.3817     0.1315   -56.4977 H            1 SUV2001   0.0000
    45 H13         -5.2056     1.8978   -50.4138 H            1 SUV2001   0.0000
    46 H14         -3.5436     0.6912   -51.5987 H            1 SUV2001   0.0000
    47 H15         -5.8313     0.8172   -55.0125 H            1 SUV2001   0.0000
    48 H16         -9.3898     3.2341   -48.8830 H            1 SUV2001   0.0000
    49 H17         -9.4332     5.1192   -50.7296 H            1 SUV2001   0.0000
    50 H18         -3.7651    -0.2670   -55.0997 H            1 SUV2001   0.0000
    51 H19         -2.6178     0.3879   -54.1397 H            1 SUV2001   0.0000
    52 H20         -3.3380    -1.0139   -53.7117 H            1 SUV2001   0.0000
    53 H21        -11.9769     3.1409   -54.5761 H            1 SUV2001   0.0000
    54 H22        -11.5475     2.4216   -53.1743 H            1 SUV2001   0.0000
    55 H23        -10.7332     3.7356   -53.7007 H            1 SUV2001   0.0000
@<TRIPOS>BOND
     1    1    2       1
     2    1    3       1
     3    1    5       2
     4    2   17       1
     5    2   21       1
     6    3   16       1
     7    4   11       1
     8    5    7       1
     9    6   22       2
    10    7    9      ar
    11    7   16      ar
    12    8   18       1
    13    8   19       1
    14    8   22      am
    15    9   11      ar
    16   10   12       1
    17   10   14       1
    18   10   24       1
    19   11   13      ar
    20   12   29       2
    21   13   15      ar
    22   14   30       2
    23   15   16      ar
    24   17   18       1
    25   19   20       1
    26   19   32       1
    27   20   21       1
    28   22   23       1
    29   23   24      ar
    30   23   28      ar
    31   24   25      ar
    32   25   26      ar
    33   26   27      ar
    34   27   28      ar
    35   27   31       1
    36   29   30       1
    37    9   33       1
    38   13   34       1
    39   15   35       1
    40   17   36       1
    41   17   37       1
    42   18   38       1
    43   18   39       1
    44   19   40       1
    45   20   41       1
    46   20   42       1
    47   21   43       1
    48   21   44       1
    49   25   45       1
    50   26   46       1
    51   28   47       1
    52   29   48       1
    53   30   49       1
    54   31   50       1
    55   31   51       1
    56   31   52       1
    57   32   53       1
    58   32   54       1
    59   32   55       1
@<TRIPOS>SUBSTRUCTURE
     1 SUV2001     1 GROUP             4 A     SUV     0 **** SUV A2001
