@<TRIPOS>MOLECULE
4kp7_1UQ_1_ligand
   29    29     1     0     0
SMALL
NO_CHARGES


@<TRIPOS>ATOM
     1 C2          24.2400    -6.6870    18.3440 C.2          1 1UQ503   0.0000
     2 O4          22.0900    -6.0130    19.0880 O.3          1 1UQ503  -1.0000
     3 C5          23.6780    -6.8170    20.7590 C.3          1 1UQ503   0.0000
     4 C6          25.7140    -7.2400    18.5800 C.3          1 1UQ503   0.0000
     5 C19         26.9300    -4.2120    22.3850 C.ar         1 1UQ503   0.0000
     6 C15         27.8950    -4.8690    21.6270 C.ar         1 1UQ503   0.0000
     7 C14         27.7350    -4.9910    20.2580 C.ar         1 1UQ503   0.0000
     8 C17         25.7670    -3.7190    21.7680 C.ar         1 1UQ503   0.0000
     9 C16         25.6560    -3.7330    20.3850 C.ar         1 1UQ503   0.0000
    10 C13         26.6020    -4.4170    19.6150 C.ar         1 1UQ503   0.0000
    11 C8          26.4430    -4.5160    18.1190 C.3          1 1UQ503   0.0000
    12 P9          27.3460    -3.2520    17.2160 P.3          1 1UQ503   0.0000
    13 O12         28.9110    -3.2690    17.5050 O.co2        1 1UQ503   0.0000
    14 O11         27.1330    -3.4920    15.7680 O.co2        1 1UQ503  -1.0000
    15 O10         26.7790    -1.8940    17.5680 O.co2        1 1UQ503  -1.0000
    16 S7          26.9470    -6.1880    17.5760 S.3          1 1UQ503   0.0000
    17 O1          23.8990    -6.4680    17.1770 O.2          1 1UQ503   0.0000
    18 N3          23.3370    -6.4900    19.3810 N.am         1 1UQ503   0.0000
    19 H1          22.9023    -6.6055    21.3535 H            1 1UQ503   0.0000
    20 H2          23.8940    -7.7910    20.8268 H            1 1UQ503   0.0000
    21 H3          24.4718    -6.2790    21.0426 H            1 1UQ503   0.0000
    22 H4          25.7657    -8.1926    18.2803 H            1 1UQ503   0.0000
    23 H5          25.9406    -7.1836    19.5524 H            1 1UQ503   0.0000
    24 H6          27.0640    -4.0907    23.3685 H            1 1UQ503   0.0000
    25 H7          28.7041    -5.2529    22.0719 H            1 1UQ503   0.0000
    26 H8          28.4175    -5.4840    19.7185 H            1 1UQ503   0.0000
    27 H9          25.0196    -3.3582    22.3259 H            1 1UQ503   0.0000
    28 H10         24.8998    -3.2542    19.9390 H            1 1UQ503   0.0000
    29 H11         25.4717    -4.4066    17.9077 H            1 1UQ503   0.0000
@<TRIPOS>BOND
     1    1    4       1
     2    1   17       2
     3    1   18      am
     4    2   18       1
     5    3   18       1
     6    4   16       1
     7    5    6      ar
     8    5    8      ar
     9    6    7      ar
    10    7   10      ar
    11    8    9      ar
    12    9   10      ar
    13   10   11       1
    14   11   12       1
    15   11   16       1
    16   12   13      ar
    17   12   14      ar
    18   12   15      ar
    19   11   29       1
    20    3   19       1
    21    3   20       1
    22    3   21       1
    23    4   22       1
    24    4   23       1
    25    5   24       1
    26    6   25       1
    27    7   26       1
    28    8   27       1
    29    9   28       1
@<TRIPOS>SUBSTRUCTURE
     1 1UQ503      1 GROUP             4 A     1UQ     0 **** 1UQ A 503
