@<TRIPOS>MOLECULE
2z6j_TUI_1_ligand
   50    53     1     0     0
SMALL
NO_CHARGES


@<TRIPOS>ATOM
     1 O21          9.1880     0.3820     9.1900 O.2          1 TUI501   0.0000
     2 C19          9.1990     1.1640    10.1290 C.2          1 TUI501   0.0000
     3 N20         10.2120     1.2130    11.0000 N.am         1 TUI501   0.0000
     4 C22         11.2220     0.3370    11.0820 C.2          1 TUI501   0.0000
     5 S23         11.5410    -0.9540    10.0740 S.3          1 TUI501   0.0000
     6 C24         12.9140    -1.4150    10.9210 C.2          1 TUI501   0.0000
     7 S27         13.9470    -2.7040    10.6040 S.3          1 TUI501   0.0000
     8 C28         14.8600    -2.3950     9.2020 C.ar         1 TUI501   0.0000
     9 N29         15.8150    -3.2770     8.8050 N.ar         1 TUI501   0.0000
    10 C30         16.5560    -3.0710     7.7040 C.ar         1 TUI501   0.0000
    11 C31         16.3630    -1.9350     6.9220 C.ar         1 TUI501   0.0000
    12 C32         15.3920    -1.0140     7.3000 C.ar         1 TUI501   0.0000
    13 C33         14.6280    -1.2390     8.4450 C.ar         1 TUI501   0.0000
    14 C25         13.0230    -0.5220    11.9180 C.2          1 TUI501   0.0000
    15 N26         12.1310     0.3680    11.9670 N.2          1 TUI501   0.0000
    16 N18          8.1830     2.0030    10.3240 N.am         1 TUI501   0.0000
    17 C17          6.9420     1.9760     9.5730 C.3          1 TUI501   0.0000
    18 C15          7.1570     2.6460     8.2370 C.2          1 TUI501   0.0000
    19 N16          6.6410     2.2390     7.0630 N.2          1 TUI501   0.0000
    20 N14          7.9200     3.7340     8.0770 N.pl3        1 TUI501   0.0000
    21 C13          7.9060     4.0700     6.7710 C.2          1 TUI501   0.0000
    22 C12          7.1020     3.1220     6.1560 C.2          1 TUI501   0.0000
    23 C3           6.7750     3.0580     4.7080 C.ar         1 TUI501   0.0000
    24 C2           5.6610     2.3160     4.2970 C.ar         1 TUI501   0.0000
    25 C1           5.3330     2.2300     2.9500 C.ar         1 TUI501   0.0000
    26 C4           7.5720     3.7150     3.7730 C.ar         1 TUI501   0.0000
    27 C5           7.2380     3.6220     2.4240 C.ar         1 TUI501   0.0000
    28 C6           6.1250     2.8810     2.0160 C.ar         1 TUI501   0.0000
    29 O7           5.7960     2.7950     0.6890 O.3          1 TUI501   0.0000
    30 C8           6.6310     2.0620    -0.2080 C.3          1 TUI501   0.0000
    31 C9           6.5940     2.7330    -1.5560 C.2          1 TUI501   0.0000
    32 O11          5.4670     2.9240    -2.0690 O.co2        1 TUI501   0.0000
    33 O10          7.6790     3.0720    -2.0900 O.co2        1 TUI501  -1.0000
    34 H1          10.2161     1.9732    11.6497 H            1 TUI501   0.0000
    35 H2          17.2526    -3.7394     7.4434 H            1 TUI501   0.0000
    36 H3          16.9141    -1.7839     6.1014 H            1 TUI501   0.0000
    37 H4          15.2417    -0.1914     6.7516 H            1 TUI501   0.0000
    38 H5          13.9245    -0.5844     8.7218 H            1 TUI501   0.0000
    39 H6          13.7686    -0.5606    12.5833 H            1 TUI501   0.0000
    40 H7           8.2823     2.6982    11.0359 H            1 TUI501   0.0000
    41 H8           6.2324     2.4636    10.0816 H            1 TUI501   0.0000
    42 H9           6.6579     1.0279     9.4301 H            1 TUI501   0.0000
    43 H10          8.3756     4.8394     6.3380 H            1 TUI501   0.0000
    44 H11          5.0985     1.8455     4.9768 H            1 TUI501   0.0000
    45 H12          4.5344     1.7043     2.6569 H            1 TUI501   0.0000
    46 H13          8.3691     4.2436     4.0650 H            1 TUI501   0.0000
    47 H14          7.7994     4.0895     1.7412 H            1 TUI501   0.0000
    48 H15          6.2956     1.1235    -0.2896 H            1 TUI501   0.0000
    49 H16          7.5693     2.0518     0.1376 H            1 TUI501   0.0000
    50 H17          8.4149     4.2147     8.8009 H            1 TUI501   0.0000
@<TRIPOS>BOND
     1    1    2       2
     2    2    3      am
     3    2   16      am
     4    3    4       1
     5    4    5       1
     6    4   15       2
     7    5    6       1
     8    6    7       1
     9    6   14       2
    10    7    8       1
    11    8    9      ar
    12    8   13      ar
    13    9   10      ar
    14   10   11      ar
    15   11   12      ar
    16   12   13      ar
    17   14   15       1
    18   16   17       1
    19   17   18       1
    20   18   19       2
    21   18   20       1
    22   19   22       1
    23   20   21       1
    24   21   22       2
    25   22   23       1
    26   23   24      ar
    27   23   26      ar
    28   24   25      ar
    29   25   28      ar
    30   26   27      ar
    31   27   28      ar
    32   28   29       1
    33   29   30       1
    34   30   31       1
    35   31   32      ar
    36   31   33      ar
    37    3   34       1
    38   10   35       1
    39   11   36       1
    40   12   37       1
    41   13   38       1
    42   14   39       1
    43   16   40       1
    44   17   41       1
    45   17   42       1
    46   20   50       1
    47   21   43       1
    48   24   44       1
    49   25   45       1
    50   26   46       1
    51   27   47       1
    52   30   48       1
    53   30   49       1
@<TRIPOS>SUBSTRUCTURE
     1 TUI501      1 GROUP             4 A     TUI     0 **** TUI A 501
