@<TRIPOS>MOLECULE
3v9l_NAD_2_ligand
   70    74     1     0     0
SMALL
NO_CHARGES


@<TRIPOS>ATOM
     1 PA         -13.8740    -3.7570    22.9860 P.3          1 NAD1517   0.0000
     2 O1A        -12.3800    -4.1610    22.7850 O.co2        1 NAD1517   0.0000
     3 O2A        -14.5870    -4.7590    23.9310 O.co2        1 NAD1517  -1.0000
     4 O5B        -14.5670    -3.8050    21.5680 O.3          1 NAD1517   0.0000
     5 C5B        -14.1100    -2.9440    20.5570 C.3          1 NAD1517   0.0000
     6 C4B        -14.4300    -3.5930    19.2270 C.3          1 NAD1517   0.0000
     7 O4B        -13.5930    -4.7150    19.0370 O.3          1 NAD1517   0.0000
     8 C3B        -15.8540    -4.0450    19.0930 C.3          1 NAD1517   0.0000
     9 O3B        -16.3120    -3.8010    17.8120 O.3          1 NAD1517   0.0000
    10 C2B        -15.7430    -5.4940    19.3570 C.3          1 NAD1517   0.0000
    11 O2B        -16.7690    -6.2350    18.8000 O.3          1 NAD1517   0.0000
    12 C1B        -14.4600    -5.7770    18.6650 C.3          1 NAD1517   0.0000
    13 N9A        -13.7770    -7.0200    18.9890 N.pl3        1 NAD1517   0.0000
    14 C8A        -13.6920    -7.6850    20.2000 C.2          1 NAD1517   0.0000
    15 N7A        -12.9200    -8.7800    20.0710 N.2          1 NAD1517   0.0000
    16 C5A        -12.4470    -8.8510    18.7560 C.ar         1 NAD1517   0.0000
    17 C6A        -11.6330    -9.7060    18.0430 C.ar         1 NAD1517   0.0000
    18 N6A        -11.0300   -10.8540    18.6490 N.pl3        1 NAD1517   0.0000
    19 N1A        -11.3730    -9.4600    16.7440 N.ar         1 NAD1517   0.0000
    20 C2A        -11.8930    -8.4000    16.0980 C.ar         1 NAD1517   0.0000
    21 N3A        -12.7070    -7.5340    16.7580 N.ar         1 NAD1517   0.0000
    22 C4A        -12.9800    -7.7340    18.0630 C.ar         1 NAD1517   0.0000
    23 O3         -13.9210    -2.2670    23.5580 O.3          1 NAD1517   0.0000
    24 PN         -15.2360    -1.3630    23.5210 P.3          1 NAD1517   0.0000
    25 O1N        -16.2750    -1.8690    24.4640 O.co2        1 NAD1517   0.0000
    26 O2N        -15.9550    -1.4660    22.2180 O.co2        1 NAD1517  -1.0000
    27 O5D        -14.8630     0.1580    23.8400 O.3          1 NAD1517   0.0000
    28 C5D        -14.3360     0.5070    25.1000 C.3          1 NAD1517   0.0000
    29 C4D        -12.8290     0.6520    25.0270 C.3          1 NAD1517   0.0000
    30 O4D        -12.4400     1.3140    23.8420 O.3          1 NAD1517   0.0000
    31 C3D        -12.2820     1.4080    26.1880 C.3          1 NAD1517   0.0000
    32 O3D        -11.1090     0.8650    26.6670 O.3          1 NAD1517   0.0000
    33 C2D        -12.0550     2.7420    25.6050 C.3          1 NAD1517   0.0000
    34 O2D        -11.1150     3.4520    26.3080 O.3          1 NAD1517   0.0000
    35 C1D        -11.6160     2.3950    24.2250 C.3          1 NAD1517   0.0000
    36 N1N        -11.7000     3.5400    23.3200 N.ar         1 NAD1517   1.0000
    37 C2N        -10.5270     4.2620    22.9750 C.ar         1 NAD1517   0.0000
    38 C3N        -10.6090     5.3630    22.1100 C.ar         1 NAD1517   0.0000
    39 C7N         -9.3530     6.1310    21.7430 C.2          1 NAD1517   0.0000
    40 O7N         -8.3044     5.8890    22.3238 O.2          1 NAD1517   0.0000
    41 N7N         -9.3834     7.1380    20.7228 N.am         1 NAD1517   0.0000
    42 C4N        -11.8620     5.7520    21.5850 C.ar         1 NAD1517   0.0000
    43 C5N        -13.0300     5.0320    21.9270 C.ar         1 NAD1517   0.0000
    44 C6N        -12.9500     3.9320    22.7910 C.ar         1 NAD1517   0.0000
    45 H5B1       -13.1227    -2.8104    20.6429 H            1 NAD1517   0.0000
    46 H5B2       -14.5732    -2.0604    20.6259 H            1 NAD1517   0.0000
    47 H4B        -14.2400    -2.9323    18.5008 H            1 NAD1517   0.0000
    48 H3B        -16.4369    -3.6002    19.7730 H            1 NAD1517   0.0000
    49 H5         -16.2597    -2.8209    17.6203 H            1 NAD1517   0.0000
    50 H2B        -15.6660    -5.6728    20.3379 H            1 NAD1517   0.0000
    51 H7         -16.9389    -7.0444    19.3622 H            1 NAD1517   0.0000
    52 H1B        -14.6109    -5.7396    17.6772 H            1 NAD1517   0.0000
    53 H8A        -14.1385    -7.3946    21.0463 H            1 NAD1517   0.0000
    54 H6A1       -10.4441   -11.4561    18.1065 H            1 NAD1517   0.0000
    55 H6A2       -11.1946   -11.0540    19.6149 H            1 NAD1517   0.0000
    56 H2A        -11.6806    -8.2494    15.1325 H            1 NAD1517   0.0000
    57 H5D1       -14.5657    -0.2070    25.7614 H            1 NAD1517   0.0000
    58 H5D2       -14.7357     1.3751    25.3943 H            1 NAD1517   0.0000
    59 H4D        -12.4234    -0.2621    25.0259 H            1 NAD1517   0.0000
    60 H3D        -12.9628     1.4607    26.9186 H            1 NAD1517   0.0000
    61 H17        -11.0359     1.0425    27.6484 H            1 NAD1517   0.0000
    62 H2D        -12.9147     3.2518    25.5724 H            1 NAD1517   0.0000
    63 H19        -11.1378     3.1751    27.2686 H            1 NAD1517   0.0000
    64 H1D        -10.6674     2.0804    24.2587 H            1 NAD1517   0.0000
    65 H2N         -9.6418     3.9853    23.3490 H            1 NAD1517   0.0000
    66 H7N1        -8.5499     7.6390    20.4898 H            1 NAD1517   0.0000
    67 H7N2       -10.2381     7.3394    20.2443 H            1 NAD1517   0.0000
    68 H4N        -11.9228     6.5383    20.9702 H            1 NAD1517   0.0000
    69 H5N        -13.9146     5.3084    21.5515 H            1 NAD1517   0.0000
    70 H6N        -13.7771     3.4247    23.0331 H            1 NAD1517   0.0000
@<TRIPOS>BOND
     1    1    2      ar
     2    1    3      ar
     3    1    4       1
     4    1   23       1
     5    4    5       1
     6    5    6       1
     7    6    7       1
     8    6    8       1
     9    7   12       1
    10    8    9       1
    11    8   10       1
    12   10   11       1
    13   10   12       1
    14   12   13       1
    15   13   14       1
    16   13   22       1
    17   14   15       2
    18   15   16       1
    19   16   17      ar
    20   16   22      ar
    21   17   18       1
    22   17   19      ar
    23   19   20      ar
    24   20   21      ar
    25   21   22      ar
    26   23   24       1
    27   24   25      ar
    28   24   26      ar
    29   24   27       1
    30   27   28       1
    31   28   29       1
    32   29   30       1
    33   29   31       1
    34   30   35       1
    35   31   32       1
    36   31   33       1
    37   33   34       1
    38   33   35       1
    39   35   36       1
    40   36   37      ar
    41   36   44      ar
    42   37   38      ar
    43   38   39       1
    44   38   42      ar
    45   39   40       2
    46   39   41      am
    47   42   43      ar
    48   43   44      ar
    49   44   70       1
    50    5   45       1
    51    5   46       1
    52    6   47       1
    53    8   48       1
    54    9   49       1
    55   10   50       1
    56   11   51       1
    57   12   52       1
    58   14   53       1
    59   18   54       1
    60   18   55       1
    61   20   56       1
    62   43   69       1
    63   28   57       1
    64   28   58       1
    65   29   59       1
    66   31   60       1
    67   32   61       1
    68   33   62       1
    69   34   63       1
    70   35   64       1
    71   37   65       1
    72   41   66       1
    73   41   67       1
    74   42   68       1
@<TRIPOS>SUBSTRUCTURE
     1 NAD1517     1 GROUP             4 B     NAD     0 **** NAD B1517
