@<TRIPOS>MOLECULE
4uxj_TTP_6_ligand
   13    12     1     0     0
SMALL
NO_CHARGES


@<TRIPOS>ATOM
     1 PA          20.4920   -22.9190   100.5720 P.3          1 TTP1183   0.0000
     2 O1A         20.1750   -21.4230   101.0610 O.co2        1 TTP1183   0.0000
     3 O2A         21.0270   -23.8680   101.6230 O.co2        1 TTP1183  -1.0000
     4 O3A         19.0030   -23.4630   100.3220 O.3          1 TTP1183   0.0000
     5 PB          18.2460   -24.3530   101.4440 P.3          1 TTP1183   0.0000
     6 O1B         18.7490   -25.7750   101.2770 O.co2        1 TTP1183   0.0000
     7 O2B         18.3600   -23.6760   102.7790 O.co2        1 TTP1183  -1.0000
     8 O3B         16.7200   -24.0790   101.0340 O.3          1 TTP1183   0.0000
     9 PG          16.3480   -22.5240   100.7090 P.3          1 TTP1183   0.0000
    10 O1G         14.9200   -22.3610   101.1670 O.co2        1 TTP1183   0.0000
    11 O2G         17.2850   -21.6760   101.5350 O.co2        1 TTP1183  -1.0000
    12 O3G         16.5310   -22.3490    99.2170 O.co2        1 TTP1183  -1.0000
    13 O5'         21.3360   -22.8360    99.3260 O.co2        1 TTP1183  -1.0000
@<TRIPOS>BOND
     1    1    2      ar
     2    1    3      ar
     3    1    4       1
     4    1   13      ar
     5    4    5       1
     6    5    6      ar
     7    5    7      ar
     8    5    8       1
     9    8    9       1
    10    9   10      ar
    11    9   11      ar
    12    9   12      ar
@<TRIPOS>SUBSTRUCTURE
     1 TTP1183     1 GROUP             4 F     TTP     0 **** TTP F1183
