@<TRIPOS>MOLECULE
5ewk_P34_1_ligand
   40    42     1     0     0
SMALL
NO_CHARGES


@<TRIPOS>ATOM
     1 CAA         19.4990    30.8870    17.5580 C.3          1 P34301   0.0000
     2 N           19.0900    30.9140    18.9580 N.4          1 P34301   1.0000
     3 CAB         19.1690    29.5760    19.4750 C.3          1 P34301   0.0000
     4 CA          19.9820    31.7590    19.7190 C.3          1 P34301   0.0000
     5 C           19.4940    32.5650    20.9440 C.2          1 P34301   0.0000
     6 O           18.2850    32.7560    21.1270 O.2          1 P34301   0.0000
     7 NAM         20.4580    33.0950    21.7690 N.am         1 P34301   0.0000
     8 CAP         21.8460    32.8700    21.5760 C.ar         1 P34301   0.0000
     9 CAK         22.7340    33.9310    21.3760 C.ar         1 P34301   0.0000
    10 CAU         24.1050    33.6250    21.1660 C.ar         1 P34301   0.0000
    11 CAT         25.1520    34.6360    20.9560 C.ar         1 P34301   0.0000
    12 CAI         24.8690    36.0000    20.9190 C.ar         1 P34301   0.0000
    13 CAF         25.8840    36.9120    20.7220 C.ar         1 P34301   0.0000
    14 CAE         27.2030    36.4960    20.4980 C.ar         1 P34301   0.0000
    15 CAH         27.4930    35.1280    20.5210 C.ar         1 P34301   0.0000
    16 CAS         26.4770    34.2120    20.7360 C.ar         1 P34301   0.0000
    17 CAQ         26.8550    32.7970    20.7950 C.2          1 P34301   0.0000
    18 OAD         28.0080    32.3900    20.6190 O.2          1 P34301   0.0000
    19 NAN         25.8590    31.9060    20.9930 N.pl3        1 P34301   0.0000
    20 CAR         24.5030    32.2920    21.1920 C.ar         1 P34301   0.0000
    21 CAJ         23.5940    31.2490    21.3890 C.ar         1 P34301   0.0000
    22 CAG         22.2880    31.5670    21.6050 C.ar         1 P34301   0.0000
    23 HAA1        19.4508    31.8111    17.1788 H            1 P34301   0.0000
    24 HAA2        20.4374    30.5478    17.4913 H            1 P34301   0.0000
    25 HAA3        18.8892    30.2836    17.0442 H            1 P34301   0.0000
    26 HAB1        18.8920    29.5730    20.4359 H            1 P34301   0.0000
    27 HAB2        18.5609    28.9797    18.9509 H            1 P34301   0.0000
    28 HAB3        20.1091    29.2439    19.3981 H            1 P34301   0.0000
    29 HA1         20.3546    32.4264    19.0742 H            1 P34301   0.0000
    30 HA2         20.7175    31.1666    20.0477 H            1 P34301   0.0000
    31 HAM         20.1684    33.6639    22.5387 H            1 P34301   0.0000
    32 HAK         22.4132    34.8781    21.3807 H            1 P34301   0.0000
    33 HAI         23.9281    36.3179    21.0355 H            1 P34301   0.0000
    34 HAF         25.6747    37.8897    20.7393 H            1 P34301   0.0000
    35 HAE         27.9249    37.1659    20.3246 H            1 P34301   0.0000
    36 HAH         28.4317    34.8122    20.3825 H            1 P34301   0.0000
    37 HAN         26.0842    30.9317    21.0001 H            1 P34301   0.0000
    38 HAJ         23.8946    30.2954    21.3718 H            1 P34301   0.0000
    39 HAG         21.6327    30.8346    21.7896 H            1 P34301   0.0000
    40 H18         18.1524    31.2535    19.0327 H            1 P34301   0.0000
@<TRIPOS>BOND
     1    1    2       1
     2    2    3       1
     3    2    4       1
     4    4    5       1
     5    5    6       2
     6    5    7      am
     7    7    8       1
     8    8    9      ar
     9    8   22      ar
    10    9   10      ar
    11   10   11       1
    12   10   20      ar
    13   11   12      ar
    14   11   16      ar
    15   12   13      ar
    16   13   14      ar
    17   14   15      ar
    18   15   16      ar
    19   16   17       1
    20   17   18       2
    21   17   19       1
    22   19   20       1
    23   20   21      ar
    24   21   22      ar
    25    1   23       1
    26    1   24       1
    27    1   25       1
    28    3   26       1
    29    3   27       1
    30    3   28       1
    31    4   29       1
    32    4   30       1
    33    7   31       1
    34    9   32       1
    35   12   33       1
    36   13   34       1
    37   14   35       1
    38   15   36       1
    39   19   37       1
    40   21   38       1
    41   22   39       1
    42    2   40       1
@<TRIPOS>SUBSTRUCTURE
     1 P34301      1 GROUP             4 A     P34     0 **** P34 A 301
