@<TRIPOS>MOLECULE
4ys2_2BA_1_ligand
   68    74     1     0     0
SMALL
NO_CHARGES


@<TRIPOS>ATOM
     1 P          -12.8050    -9.2970    -5.7670 P.3          1 2BA301   0.0000
     2 O1P        -11.8220    -8.6430    -4.8310 O.3          1 2BA301   0.0000
     3 O2P        -13.6800   -10.2210    -4.9540 O.2          1 2BA301   0.0000
     4 O5'        -13.9960    -8.3570    -6.3130 O.3          1 2BA301   0.0000
     5 C5'        -14.9130    -8.4090    -6.7790 C.3          1 2BA301   0.0000
     6 C4'        -15.2820    -7.5210    -7.9170 C.3          1 2BA301   0.0000
     7 O4'        -15.5890    -6.5160    -6.9520 O.3          1 2BA301   0.0000
     8 C3'        -14.8190    -6.8130    -9.1850 C.3          1 2BA301   0.0000
     9 O3'        -14.6870    -7.9980   -10.4880 O.3          1 2BA301   0.0000
    10 C2'        -15.2980    -5.3860    -9.0210 C.3          1 2BA301   0.0000
    11 O2'        -16.5580    -5.1960    -9.6680 O.3          1 2BA301   0.0000
    12 C1'        -15.4880    -5.2110    -7.5270 C.3          1 2BA301   0.0000
    13 N9         -14.0890    -4.5950    -6.6200 N.pl3        1 2BA301   0.0000
    14 C8         -13.0900    -5.1180    -5.8860 C.2          1 2BA301   0.0000
    15 N7         -12.2350    -4.1390    -5.5180 N.2          1 2BA301   0.0000
    16 C5         -12.7180    -2.9930    -6.0290 C.ar         1 2BA301   0.0000
    17 C6         -12.2760    -1.6850    -5.9810 C.ar         1 2BA301   0.0000
    18 N6         -11.1370    -1.4020    -5.3080 N.pl3        1 2BA301   0.0000
    19 N1         -12.9910    -0.7190    -6.6110 N.ar         1 2BA301   0.0000
    20 C2         -14.1200    -1.0200    -7.2780 C.ar         1 2BA301   0.0000
    21 N3         -14.5740    -2.2800    -7.3380 N.ar         1 2BA301   0.0000
    22 C4         -13.8880    -3.2770    -6.7210 C.ar         1 2BA301   0.0000
    23 P1         -13.4890    -8.1160   -11.5560 P.3          1 2BA301   0.0000
    24 O1P1       -13.1050    -6.6570   -11.6200 O.3          1 2BA301   0.0000
    25 O2P1       -13.7900    -8.6080   -12.9540 O.2          1 2BA301   0.0000
    26 O5'1       -12.2590    -8.8570   -10.8350 O.3          1 2BA301   0.0000
    27 C5'1       -12.4190   -10.1840   -10.3390 C.3          1 2BA301   0.0000
    28 C4'1       -11.1780   -10.5400    -9.1640 C.3          1 2BA301   0.0000
    29 O4'1       -10.2470    -9.7860   -10.1680 O.3          1 2BA301   0.0000
    30 C3'1       -11.2620    -9.7300    -8.0080 C.3          1 2BA301   0.0000
    31 O3'1       -12.2800   -10.1330    -7.0420 O.3          1 2BA301   0.0000
    32 C2'1        -9.8200    -9.3960    -7.7990 C.3          1 2BA301   0.0000
    33 O2'1        -9.0650   -10.0860    -6.8000 O.3          1 2BA301   0.0000
    34 C1'1        -9.2690    -9.2380    -9.2820 C.3          1 2BA301   0.0000
    35 N91         -9.1100    -7.7770    -9.4960 N.pl3        1 2BA301   0.0000
    36 C81         -9.8580    -7.0060   -10.3020 C.2          1 2BA301   0.0000
    37 N71         -9.4200    -5.7300   -10.2230 N.2          1 2BA301   0.0000
    38 C51         -8.3910    -5.7080    -9.3550 C.ar         1 2BA301   0.0000
    39 C61         -7.5630    -4.6980    -8.8890 C.ar         1 2BA301   0.0000
    40 N61         -7.7340    -3.4310    -9.3250 N.pl3        1 2BA301   0.0000
    41 N11         -6.5890    -5.0080    -7.9960 N.ar         1 2BA301   0.0000
    42 C21         -6.4170    -6.2700    -7.5610 C.ar         1 2BA301   0.0000
    43 N31         -7.2010    -7.2650    -7.9950 N.ar         1 2BA301   0.0000
    44 C41         -8.1940    -7.0030    -8.8950 C.ar         1 2BA301   0.0000
    45 H1P        -11.2648    -9.3457    -4.3887 H            1 2BA301   0.0000
    46 H5'1       -15.5963    -8.2471    -6.0670 H            1 2BA301   0.0000
    47 H5'2       -15.0001    -9.3458    -7.1177 H            1 2BA301   0.0000
    48 H4'        -16.1868    -7.8603    -8.1743 H            1 2BA301   0.0000
    49 H3'        -13.8505    -6.6924    -8.9673 H            1 2BA301   0.0000
    50 H2'        -14.6185    -4.7409    -9.3705 H            1 2BA301   0.0000
    51 H7         -16.8551    -4.2488    -9.5475 H            1 2BA301   0.0000
    52 H1'        -16.3063    -4.6704    -7.3319 H            1 2BA301   0.0000
    53 H9         -12.9949    -6.0848    -5.6488 H            1 2BA301   0.0000
    54 H10        -10.8033    -0.4604    -5.2636 H            1 2BA301   0.0000
    55 H11        -10.6288    -2.1345    -4.8550 H            1 2BA301   0.0000
    56 H12        -14.6290    -0.2917    -7.7367 H            1 2BA301   0.0000
    57 H13        -13.8891    -6.1192   -11.9299 H            1 2BA301   0.0000
    58 H14        -12.3508   -10.8312   -11.0983 H            1 2BA301   0.0000
    59 H15        -13.3171   -10.2697    -9.9076 H            1 2BA301   0.0000
    60 H16        -10.9753   -11.5076    -9.0131 H            1 2BA301   0.0000
    61 H17        -11.6326    -8.8743    -8.3693 H            1 2BA301   0.0000
    62 H18         -9.8469    -8.4554    -7.4605 H            1 2BA301   0.0000
    63 H19         -8.1262    -9.7416    -6.7945 H            1 2BA301   0.0000
    64 H20         -8.3930    -9.7088    -9.3865 H            1 2BA301   0.0000
    65 H21        -10.6171    -7.3249   -10.8695 H            1 2BA301   0.0000
    66 H22         -7.1374    -2.7020    -8.9895 H            1 2BA301   0.0000
    67 H23         -8.4572    -3.2221    -9.9833 H            1 2BA301   0.0000
    68 H24         -5.6911    -6.4680    -6.9023 H            1 2BA301   0.0000
@<TRIPOS>BOND
     1    1    2       1
     2    1    3       2
     3    1    4       1
     4    1   31       1
     5    4    5       1
     6    5    6       1
     7    6    7       1
     8    6    8       1
     9    7   12       1
    10    8    9       1
    11    8   10       1
    12    9   23       1
    13   10   11       1
    14   10   12       1
    15   12   13       1
    16   13   14       1
    17   13   22       1
    18   14   15       2
    19   15   16       1
    20   16   17      ar
    21   16   22      ar
    22   17   18       1
    23   17   19      ar
    24   19   20      ar
    25   20   21      ar
    26   21   22      ar
    27   23   24       1
    28   23   25       2
    29   23   26       1
    30   26   27       1
    31   27   28       1
    32   28   29       1
    33   28   30       1
    34   29   34       1
    35   30   31       1
    36   30   32       1
    37   32   33       1
    38   32   34       1
    39   34   35       1
    40   35   36       1
    41   35   44       1
    42   36   37       2
    43   37   38       1
    44   38   39      ar
    45   38   44      ar
    46   39   40       1
    47   39   41      ar
    48   41   42      ar
    49   42   43      ar
    50   43   44      ar
    51    2   45       1
    52    5   46       1
    53    5   47       1
    54    6   48       1
    55    8   49       1
    56   10   50       1
    57   11   51       1
    58   12   52       1
    59   14   53       1
    60   18   54       1
    61   18   55       1
    62   20   56       1
    63   24   57       1
    64   27   58       1
    65   27   59       1
    66   28   60       1
    67   30   61       1
    68   32   62       1
    69   33   63       1
    70   34   64       1
    71   36   65       1
    72   40   66       1
    73   40   67       1
    74   42   68       1
@<TRIPOS>SUBSTRUCTURE
     1 2BA301      1 GROUP             4 A     2BA     0 **** 2BA A 301
