@<TRIPOS>MOLECULE
4rmn_C21_2_ligand
   11    11     1     0     0
SMALL
NO_CHARGES


@<TRIPOS>ATOM
     1 O8           6.9070    -7.6020    22.8060 O.co2        1 C211001   0.0000
     2 C6           6.7470    -6.9710    23.8720 C.2          1 C211001   0.0000
     3 O7           5.6760    -7.0630    24.5400 O.co2        1 C211001  -1.0000
     4 C4           7.8370    -6.0370    24.3140 C.2          1 C211001   0.0000
     5 S5           7.4980    -5.1260    25.7610 S.3          1 C211001   0.0000
     6 C3           9.1000    -5.6750    23.7980 C.2          1 C211001   0.0000
     7 C2           9.7640    -4.7100    24.5900 C.2          1 C211001   0.0000
     8 C1           9.0120    -4.2870    25.6900 C.2          1 C211001   0.0000
     9 H1           9.4851    -6.0608    22.9596 H            1 C211001   0.0000
    10 H2          10.6796    -4.3648    24.3840 H            1 C211001   0.0000
    11 H3           9.3080    -3.5938    26.3471 H            1 C211001   0.0000
@<TRIPOS>BOND
     1    1    2      ar
     2    2    3      ar
     3    2    4       1
     4    4    5       1
     5    4    6       2
     6    5    8       1
     7    6    7       1
     8    7    8       2
     9    8   11       1
    10    6    9       1
    11    7   10       1
@<TRIPOS>SUBSTRUCTURE
     1 C211001     1 GROUP             4 A     C21     0 **** C21 A1001
