@<TRIPOS>MOLECULE
3jsz_UPG_1_ligand
   58    60     1     0     0
SMALL
NO_CHARGES


@<TRIPOS>ATOM
     1 N1          45.5850     9.0540    -4.9020 N.pl3        1 UPG526   0.0000
     2 C2          46.5490     9.0460    -5.9240 C.2          1 UPG526   0.0000
     3 N3          47.6700     9.7680    -5.8090 N.pl3        1 UPG526   0.0000
     4 C4          47.9080    10.4960    -4.6970 C.2          1 UPG526   0.0000
     5 C5          46.9790    10.5140    -3.6610 C.2          1 UPG526   0.0000
     6 C6          45.8070     9.7730    -3.7730 C.2          1 UPG526   0.0000
     7 O2          46.3220     8.3500    -6.9500 O.2          1 UPG526   0.0000
     8 O4          48.9610    11.1720    -4.6010 O.2          1 UPG526   0.0000
     9 C1C         44.3700     8.2510    -5.0930 C.3          1 UPG526   0.0000
    10 C2C         44.6420     6.7760    -4.8920 C.3          1 UPG526   0.0000
    11 O2C         43.8030     5.9790    -5.7340 O.3          1 UPG526   0.0000
    12 C3C         44.2130     6.5770    -3.4560 C.3          1 UPG526   0.0000
    13 C4C         43.0190     7.4940    -3.3630 C.3          1 UPG526   0.0000
    14 O4C         43.3700     8.6320    -4.1400 O.3          1 UPG526   0.0000
    15 O3C         43.9130     5.2260    -3.1450 O.3          1 UPG526   0.0000
    16 C5C         42.6600     7.9320    -1.9570 C.3          1 UPG526   0.0000
    17 O5C         43.7890     8.5310    -1.3680 O.3          1 UPG526   0.0000
    18 PA          43.9200     8.4570     0.2450 P.3          1 UPG526   0.0000
    19 O1A         43.6310     7.0840     0.7690 O.co2        1 UPG526   0.0000
    20 O2A         45.2710     9.0390     0.5630 O.co2        1 UPG526  -1.0000
    21 O3A         42.8400     9.5300     0.6760 O.3          1 UPG526   0.0000
    22 PB          41.5330     9.3570     1.5810 P.3          1 UPG526   0.0000
    23 O1B         41.0180    10.7400     1.8660 O.co2        1 UPG526   0.0000
    24 O2B         41.7910     8.5010     2.7860 O.co2        1 UPG526  -1.0000
    25 O3B         40.5390     8.6220     0.5520 O.3          1 UPG526   0.0000
    26 C1'         39.1260     8.7500     0.6050 C.3          1 UPG526   0.0000
    27 C2'         38.5630     7.4630     0.0350 C.3          1 UPG526   0.0000
    28 C3'         39.0210     7.3100    -1.4080 C.3          1 UPG526   0.0000
    29 C4'         38.6570     8.5540    -2.2160 C.3          1 UPG526   0.0000
    30 C5'         39.1000     9.8490    -1.5390 C.3          1 UPG526   0.0000
    31 C6'         38.5760    11.0630    -2.3040 C.3          1 UPG526   0.0000
    32 O2'         39.0010     6.3520     0.8340 O.3          1 UPG526   0.0000
    33 O3'         38.4070     6.1510    -1.9920 O.3          1 UPG526   0.0000
    34 O4'         39.3150     8.4640    -3.4940 O.3          1 UPG526   0.0000
    35 O5'         38.6930     9.8900    -0.1510 O.3          1 UPG526   0.0000
    36 O6'         37.1450    11.0550    -2.4120 O.3          1 UPG526   0.0000
    37 H1          48.3376     9.7683    -6.5536 H            1 UPG526   0.0000
    38 H2          47.1532    11.0572    -2.8397 H            1 UPG526   0.0000
    39 H3          45.1367     9.7703    -3.0309 H            1 UPG526   0.0000
    40 H1C         44.0185     8.3989    -6.0174 H            1 UPG526   0.0000
    41 H2C         45.6092     6.5579    -5.0219 H            1 UPG526   0.0000
    42 H6          44.2617     5.8215    -6.6085 H            1 UPG526   0.0000
    43 H3C         44.9332     6.9064    -2.8454 H            1 UPG526   0.0000
    44 H4C         42.2279     7.0450    -3.7784 H            1 UPG526   0.0000
    45 H9          42.9618     5.1564    -2.8444 H            1 UPG526   0.0000
    46 H5C1        42.3812     7.1372    -1.4180 H            1 UPG526   0.0000
    47 H5C2        41.9090     8.5914    -1.9916 H            1 UPG526   0.0000
    48 H1'         38.8349     8.8497     1.5565 H            1 UPG526   0.0000
    49 H2'         37.5642     7.5064     0.0570 H            1 UPG526   0.0000
    50 H3'         40.0140     7.1930    -1.4224 H            1 UPG526   0.0000
    51 H4'         37.6672     8.5776    -2.3562 H            1 UPG526   0.0000
    52 H5'         40.0992     9.8803    -1.5648 H            1 UPG526   0.0000
    53 H6'1        38.9690    11.0592    -3.2235 H            1 UPG526   0.0000
    54 H6'2        38.8587    11.8935    -1.8241 H            1 UPG526   0.0000
    55 H19         39.5267     5.7193     0.2654 H            1 UPG526   0.0000
    56 H20         38.9904     5.3530    -1.8411 H            1 UPG526   0.0000
    57 H21         38.7665     8.9345    -4.1852 H            1 UPG526   0.0000
    58 H6'         36.8836    11.0412    -3.3771 H            1 UPG526   0.0000
@<TRIPOS>BOND
     1    1    2       1
     2    1    6       1
     3    1    9       1
     4    2    3       1
     5    2    7       2
     6    3    4       1
     7    4    5       1
     8    4    8       2
     9    5    6       2
    10    9   10       1
    11    9   14       1
    12   10   11       1
    13   10   12       1
    14   12   13       1
    15   12   15       1
    16   13   14       1
    17   13   16       1
    18   16   17       1
    19   17   18       1
    20   18   19      ar
    21   18   20      ar
    22   18   21       1
    23   21   22       1
    24   22   23      ar
    25   22   24      ar
    26   22   25       1
    27   25   26       1
    28   26   27       1
    29   26   35       1
    30   27   28       1
    31   27   32       1
    32   28   29       1
    33   28   33       1
    34   29   30       1
    35   29   34       1
    36   30   31       1
    37   30   35       1
    38   31   36       1
    39    3   37       1
    40    5   38       1
    41    6   39       1
    42    9   40       1
    43   10   41       1
    44   11   42       1
    45   12   43       1
    46   13   44       1
    47   15   45       1
    48   16   46       1
    49   16   47       1
    50   36   58       1
    51   34   57       1
    52   26   48       1
    53   27   49       1
    54   28   50       1
    55   29   51       1
    56   30   52       1
    57   31   53       1
    58   31   54       1
    59   32   55       1
    60   33   56       1
@<TRIPOS>SUBSTRUCTURE
     1 UPG526      1 GROUP             4 A     UPG     0 **** UPG A 526
