@<TRIPOS>MOLECULE
3h1q_ATP_2_ligand
   44    45     1     0     0
SMALL
NO_CHARGES


@<TRIPOS>ATOM
     1 PG          88.5850    28.4040    40.7500 P.3          1 ATP301   0.0000
     2 O1G         89.7530    29.3370    41.0780 O.co2        1 ATP301   0.0000
     3 O2G         87.7610    27.9190    41.9380 O.co2        1 ATP301  -1.0000
     4 O3G         87.7500    28.9840    39.6160 O.co2        1 ATP301  -1.0000
     5 PB          89.2140    26.0840    38.9070 P.3          1 ATP301   0.0000
     6 O1B         90.2970    25.0790    38.9170 O.co2        1 ATP301   0.0000
     7 O2B         89.0540    26.9910    37.6840 O.co2        1 ATP301  -1.0000
     8 O3B         89.3100    26.9950    40.2630 O.3          1 ATP301   0.0000
     9 PA          86.5580    25.1630    38.4430 P.3          1 ATP301   0.0000
    10 O1A         86.7970    25.6390    37.0420 O.co2        1 ATP301   0.0000
    11 O2A         85.5300    25.9100    39.2440 O.co2        1 ATP301  -1.0000
    12 O3A         87.9580    25.1320    39.2740 O.3          1 ATP301   0.0000
    13 O5'         86.1300    23.6420    38.5100 O.3          1 ATP301   0.0000
    14 C5'         86.5240    22.6830    37.5550 C.3          1 ATP301   0.0000
    15 C4'         85.9640    21.4240    38.2040 C.3          1 ATP301   0.0000
    16 O4'         84.5440    21.3310    37.9750 O.3          1 ATP301   0.0000
    17 C3'         86.5890    20.1330    37.7120 C.3          1 ATP301   0.0000
    18 O3'         86.5500    19.2180    38.8250 O.3          1 ATP301   0.0000
    19 C2'         85.5950    19.6880    36.6740 C.3          1 ATP301   0.0000
    20 O2'         85.6130    18.2820    36.4410 O.3          1 ATP301   0.0000
    21 C1'         84.2890    20.0920    37.3300 C.3          1 ATP301   0.0000
    22 N9          83.2950    20.1970    36.2640 N.pl3        1 ATP301   0.0000
    23 C8          83.3770    20.9100    35.1220 C.2          1 ATP301   0.0000
    24 N7          82.2710    20.7280    34.3660 N.2          1 ATP301   0.0000
    25 C5          81.4980    19.8800    35.0480 C.2          1 ATP301   0.0000
    26 C6          80.2170    19.2510    34.8450 C.2          1 ATP301   0.0000
    27 N6          79.5400    19.5450    33.7150 N.pl3        1 ATP301   0.0000
    28 N1          79.7970    18.4450    35.8400 N.2          1 ATP301   0.0000
    29 N3          81.5620    18.6670    37.1680 N.pl3        1 ATP301   0.0000
    30 C4          82.1590    19.5220    36.2920 C.2          1 ATP301   0.0000
    31 H5'1        87.5185    22.6408    37.4589 H            1 ATP301   0.0000
    32 H5'2        86.1099    22.8563    36.6614 H            1 ATP301   0.0000
    33 H4'         86.1168    21.4878    39.1902 H            1 ATP301   0.0000
    34 H3'         87.5095    20.2602    37.3426 H            1 ATP301   0.0000
    35 H5          87.3216    18.5849    38.7633 H            1 ATP301   0.0000
    36 H2'         85.7299    20.1889    35.8190 H            1 ATP301   0.0000
    37 H7          86.2664    18.0730    35.7134 H            1 ATP301   0.0000
    38 H1'         84.0091    19.4035    37.9990 H            1 ATP301   0.0000
    39 H9          84.1493    21.4928    34.8693 H            1 ATP301   0.0000
    40 H10         78.6484    19.1261    33.5429 H            1 ATP301   0.0000
    41 H11         79.9300    20.1818    33.0498 H            1 ATP301   0.0000
    42 H12         80.6681    18.2739    36.9525 H            1 ATP301   0.0000
    43 H13         82.0175    18.4323    38.0267 H            1 ATP301   0.0000
    44 H14         78.9169    17.9760    35.7658 H            1 ATP301   0.0000
@<TRIPOS>BOND
     1    1    2      ar
     2    1    3      ar
     3    1    4      ar
     4    1    8       1
     5    5    6      ar
     6    5    7      ar
     7    5    8       1
     8    5   12       1
     9    9   10      ar
    10    9   11      ar
    11    9   12       1
    12    9   13       1
    13   13   14       1
    14   14   15       1
    15   15   16       1
    16   15   17       1
    17   16   21       1
    18   17   18       1
    19   17   19       1
    20   19   20       1
    21   19   21       1
    22   21   22       1
    23   22   23       1
    24   22   30       1
    25   23   24       2
    26   24   25       1
    27   25   26       1
    28   25   30       2
    29   26   27       1
    30   26   28       2
    31   29   30       1
    32   29   43       1
    33   29   42       1
    34   28   44       1
    35   27   41       1
    36   14   31       1
    37   14   32       1
    38   15   33       1
    39   17   34       1
    40   18   35       1
    41   19   36       1
    42   20   37       1
    43   21   38       1
    44   23   39       1
    45   27   40       1
@<TRIPOS>SUBSTRUCTURE
     1 ATP301      1 GROUP             4 B     ATP     0 **** ATP B 301
