@<TRIPOS>MOLECULE
3koq_FMN_2_ligand
   50    52     1     0     0
SMALL
NO_CHARGES


@<TRIPOS>ATOM
     1 N1          -6.9970    29.8310    12.8450 N.2          1 FMN300   0.0000
     2 C2          -8.2000    29.1640    12.8520 C.2          1 FMN300   0.0000
     3 O2          -8.8800    29.1510    13.8900 O.2          1 FMN300   0.0000
     4 N3          -8.6180    28.4490    11.7850 N.pl3        1 FMN300   0.0000
     5 C4          -7.9030    28.3570    10.6000 C.2          1 FMN300   0.0000
     6 O4          -8.3790    27.6890     9.6770 O.2          1 FMN300   0.0000
     7 C4A         -6.6950    29.0330    10.5420 C.2          1 FMN300   0.0000
     8 N5          -5.9110    28.9720     9.3720 N.2          1 FMN300   0.0000
     9 C5A         -4.7890    29.7880     9.2930 C.ar         1 FMN300   0.0000
    10 C6          -4.1520    29.8860     8.0420 C.ar         1 FMN300   0.0000
    11 C7          -3.0660    30.7670     7.9030 C.ar         1 FMN300   0.0000
    12 C7M         -2.3100    30.7720     6.5600 C.3          1 FMN300   0.0000
    13 C8          -2.6830    31.5610     9.0000 C.ar         1 FMN300   0.0000
    14 C8M         -1.5760    32.5490     8.8590 C.3          1 FMN300   0.0000
    15 C9          -3.3560    31.4980    10.2440 C.ar         1 FMN300   0.0000
    16 C9A         -4.4260    30.6310    10.3860 C.ar         1 FMN300   0.0000
    17 N10         -5.0910    30.5320    11.6190 N.pl3        1 FMN300   0.0000
    18 C10         -6.2820    29.7940    11.6630 C.2          1 FMN300   0.0000
    19 C1'         -4.7180    31.4090    12.7680 C.3          1 FMN300   0.0000
    20 C2'         -3.4230    30.8620    13.3830 C.3          1 FMN300   0.0000
    21 O2'         -3.7090    29.7270    14.2100 O.3          1 FMN300   0.0000
    22 C3'         -2.6790    31.9610    14.1620 C.3          1 FMN300   0.0000
    23 O3'         -2.2960    33.0320    13.2730 O.3          1 FMN300   0.0000
    24 C4'         -1.4270    31.4770    14.9480 C.3          1 FMN300   0.0000
    25 O4'         -1.7790    30.3650    15.8370 O.3          1 FMN300   0.0000
    26 C5'         -0.7310    32.6030    15.6910 C.3          1 FMN300   0.0000
    27 O5'         -1.6320    33.2450    16.5540 O.3          1 FMN300   0.0000
    28 P           -1.9300    34.7870    16.4080 P.3          1 FMN300   0.0000
    29 O1P         -2.9580    35.0610    17.5140 O.co2        1 FMN300   0.0000
    30 O2P         -2.4020    35.0850    14.9610 O.co2        1 FMN300  -1.0000
    31 O3P         -0.6700    35.5720    16.7080 O.co2        1 FMN300  -1.0000
    32 H1          -9.4880    27.9607    11.8529 H            1 FMN300   0.0000
    33 H2          -4.4663    29.3388     7.2663 H            1 FMN300   0.0000
    34 H7M1        -1.5668    31.4400     6.5983 H            1 FMN300   0.0000
    35 H7M2        -1.9321    29.8625     6.3868 H            1 FMN300   0.0000
    36 H7M3        -2.9405    31.0167     5.8234 H            1 FMN300   0.0000
    37 H8M1        -1.4385    33.0220     9.7293 H            1 FMN300   0.0000
    38 H8M2        -0.7350    32.0729     8.6019 H            1 FMN300   0.0000
    39 H8M3        -1.8117    33.2150     8.1512 H            1 FMN300   0.0000
    40 H9          -3.0628    32.0714    11.0090 H            1 FMN300   0.0000
    41 H1'1        -5.4478    31.4011    13.4516 H            1 FMN300   0.0000
    42 H1'2        -4.5721    32.3448    12.4470 H            1 FMN300   0.0000
    43 H2'         -2.8311    30.5584    12.6364 H            1 FMN300   0.0000
    44 H13         -4.1368    29.0115    13.6577 H            1 FMN300   0.0000
    45 H3'         -3.3208    32.3412    14.8280 H            1 FMN300   0.0000
    46 H15         -2.2765    33.8943    13.7790 H            1 FMN300   0.0000
    47 H4'         -0.7770    31.1220    14.2761 H            1 FMN300   0.0000
    48 H17         -2.5354    29.8463    15.4386 H            1 FMN300   0.0000
    49 H5'1        -0.3775    33.2654    15.0305 H            1 FMN300   0.0000
    50 H5'2         0.0268    32.2275    16.2247 H            1 FMN300   0.0000
@<TRIPOS>BOND
     1    1    2       1
     2    1   18       2
     3    2    3       2
     4    2    4       1
     5    4    5       1
     6    5    6       2
     7    5    7       1
     8    7    8       2
     9    7   18       1
    10    8    9       1
    11    9   10      ar
    12    9   16      ar
    13   10   11      ar
    14   11   12       1
    15   11   13      ar
    16   13   14       1
    17   13   15      ar
    18   15   16      ar
    19   16   17       1
    20   17   18       1
    21   17   19       1
    22   19   20       1
    23   20   21       1
    24   20   22       1
    25   22   23       1
    26   22   24       1
    27   24   25       1
    28   24   26       1
    29   26   27       1
    30   27   28       1
    31   28   29      ar
    32   28   30      ar
    33   28   31      ar
    34    4   32       1
    35   10   33       1
    36   12   34       1
    37   12   35       1
    38   12   36       1
    39   14   37       1
    40   14   38       1
    41   14   39       1
    42   15   40       1
    43   19   41       1
    44   19   42       1
    45   20   43       1
    46   21   44       1
    47   22   45       1
    48   23   46       1
    49   24   47       1
    50   25   48       1
    51   26   49       1
    52   26   50       1
@<TRIPOS>SUBSTRUCTURE
     1 FMN300      1 GROUP             4 B     FMN     0 **** FMN B 300
