@<TRIPOS>MOLECULE
1gzf_NAD_2_ligand
   70    74     1     0     0
SMALL
NO_CHARGES


@<TRIPOS>ATOM
     1 PA          37.6760    37.5940    34.6810 P.3          1 NAD1248   0.0000
     2 O1A         38.9010    36.8380    34.4670 O.co2        1 NAD1248   0.0000
     3 O2A         38.1480    38.8990    35.3660 O.co2        1 NAD1248  -1.0000
     4 O5B         36.7990    37.4070    33.4320 O.3          1 NAD1248   0.0000
     5 C5B         35.4700    38.0060    33.5090 C.3          1 NAD1248   0.0000
     6 C4B         34.7280    37.8140    32.1250 C.3          1 NAD1248   0.0000
     7 O4B         35.4510    38.6100    31.2050 O.3          1 NAD1248   0.0000
     8 C3B         34.7480    36.4470    31.5150 C.3          1 NAD1248   0.0000
     9 O3B         33.6120    36.0630    30.7090 O.3          1 NAD1248   0.0000
    10 C2B         36.0740    36.3570    30.7490 C.3          1 NAD1248   0.0000
    11 O2B         36.0090    35.2900    29.7810 O.3          1 NAD1248   0.0000
    12 C1B         36.1470    37.7750    30.2870 C.3          1 NAD1248   0.0000
    13 N9A         37.4930    38.2720    29.9730 N.pl3        1 NAD1248   0.0000
    14 C8A         38.6660    37.7530    30.4590 C.2          1 NAD1248   0.0000
    15 N7A         39.7090    38.4810    30.0370 N.2          1 NAD1248   0.0000
    16 C5A         39.1780    39.4150    29.2210 C.ar         1 NAD1248   0.0000
    17 C6A         39.8930    40.4240    28.5320 C.ar         1 NAD1248   0.0000
    18 N6A         41.2630    40.3740    28.6640 N.pl3        1 NAD1248   0.0000
    19 N1A         39.1600    41.2760    27.8400 N.ar         1 NAD1248   0.0000
    20 C2A         37.7660    41.0780    27.8800 C.ar         1 NAD1248   0.0000
    21 N3A         36.9930    40.1590    28.4870 N.ar         1 NAD1248   0.0000
    22 C4A         37.8340    39.3600    29.1920 C.ar         1 NAD1248   0.0000
    23 O3          36.6830    36.6880    35.6780 O.3          1 NAD1248   0.0000
    24 PN          36.4620    35.2020    35.7640 P.3          1 NAD1248   0.0000
    25 O1N         37.5270    34.2960    35.9490 O.co2        1 NAD1248   0.0000
    26 O2N         35.4300    34.5900    34.9070 O.co2        1 NAD1248  -1.0000
    27 O5D         35.6660    34.8480    37.0960 O.3          1 NAD1248   0.0000
    28 C5D         36.3750    34.6250    38.3220 C.3          1 NAD1248   0.0000
    29 C4D         35.3540    34.0620    39.3540 C.3          1 NAD1248   0.0000
    30 O4D         35.5660    32.6010    39.2400 O.3          1 NAD1248   0.0000
    31 C3D         35.9670    34.3710    40.7390 C.3          1 NAD1248   0.0000
    32 O3D         35.1230    33.8750    41.7740 O.3          1 NAD1248   0.0000
    33 C2D         37.1810    33.4430    40.6040 C.3          1 NAD1248   0.0000
    34 O2D         37.6260    32.8660    41.8430 O.3          1 NAD1248   0.0000
    35 C1D         36.8000    32.3670    39.6140 C.3          1 NAD1248   0.0000
    36 N1N         37.6160    31.3830    38.9490 N.ar         1 NAD1248   1.0000
    37 C2N         37.4990    31.3610    37.5580 C.ar         1 NAD1248   0.0000
    38 C3N         38.2680    30.4760    36.8550 C.ar         1 NAD1248   0.0000
    39 C7N         38.1690    30.2640    35.2830 C.2          1 NAD1248   0.0000
    40 O7N         38.4390    29.1550    34.8400 O.2          1 NAD1248   0.0000
    41 N7N         37.6470    31.3330    34.6130 N.am         1 NAD1248   0.0000
    42 C4N         39.1320    29.6220    37.5100 C.ar         1 NAD1248   0.0000
    43 C5N         39.2140    29.6510    38.9190 C.ar         1 NAD1248   0.0000
    44 C6N         38.5240    30.5860    39.6640 C.ar         1 NAD1248   0.0000
    45 H5B1        35.5547    38.9819    33.7099 H            1 NAD1248   0.0000
    46 H5B2        34.9446    37.5608    34.2341 H            1 NAD1248   0.0000
    47 H4B         33.7862    38.1429    32.1943 H            1 NAD1248   0.0000
    48 H3B         34.8033    35.7930    32.2694 H            1 NAD1248   0.0000
    49 H5          33.1800    35.2532    31.1061 H            1 NAD1248   0.0000
    50 H2B         36.8184    36.1778    31.3923 H            1 NAD1248   0.0000
    51 H7          36.9231    34.9085    29.6435 H            1 NAD1248   0.0000
    52 H1B         35.6310    37.8141    29.4313 H            1 NAD1248   0.0000
    53 H8A         38.7333    36.9457    31.0452 H            1 NAD1248   0.0000
    54 H6A1        41.8347    41.0545    28.2056 H            1 NAD1248   0.0000
    55 H6A2        41.6861    39.6572    29.2183 H            1 NAD1248   0.0000
    56 H2A         37.2491    41.7532    27.3538 H            1 NAD1248   0.0000
    57 H5D1        36.7594    35.4856    38.6560 H            1 NAD1248   0.0000
    58 H5D2        37.1121    33.9653    38.1755 H            1 NAD1248   0.0000
    59 H4D         34.4098    34.3665    39.2286 H            1 NAD1248   0.0000
    60 H3D         36.2148    35.3326    40.8568 H            1 NAD1248   0.0000
    61 H17         35.2196    34.4494    42.5868 H            1 NAD1248   0.0000
    62 H2D         37.9364    33.9711    40.2162 H            1 NAD1248   0.0000
    63 H19         38.6121    32.7053    41.8007 H            1 NAD1248   0.0000
    64 H1D         36.5196    31.7294    40.3316 H            1 NAD1248   0.0000
    65 H2N         36.8680    31.9777    37.0873 H            1 NAD1248   0.0000
    66 H7N1        37.5434    31.2980    33.6190 H            1 NAD1248   0.0000
    67 H7N2        37.3683    32.1509    35.1163 H            1 NAD1248   0.0000
    68 H4N         39.6984    28.9844    36.9879 H            1 NAD1248   0.0000
    69 H5N         39.7856    28.9781    39.3886 H            1 NAD1248   0.0000
    70 H6N         38.6619    30.6890    40.6491 H            1 NAD1248   0.0000
@<TRIPOS>BOND
     1    1    2      ar
     2    1    3      ar
     3    1    4       1
     4    1   23       1
     5    4    5       1
     6    5    6       1
     7    6    7       1
     8    6    8       1
     9    7   12       1
    10    8    9       1
    11    8   10       1
    12   10   11       1
    13   10   12       1
    14   12   13       1
    15   13   14       1
    16   13   22       1
    17   14   15       2
    18   15   16       1
    19   16   17      ar
    20   16   22      ar
    21   17   18       1
    22   17   19      ar
    23   19   20      ar
    24   20   21      ar
    25   21   22      ar
    26   23   24       1
    27   24   25      ar
    28   24   26      ar
    29   24   27       1
    30   27   28       1
    31   28   29       1
    32   29   30       1
    33   29   31       1
    34   30   35       1
    35   31   32       1
    36   31   33       1
    37   33   34       1
    38   33   35       1
    39   35   36       1
    40   36   37      ar
    41   36   44      ar
    42   37   38      ar
    43   38   39       1
    44   38   42      ar
    45   39   40       2
    46   39   41      am
    47   42   43      ar
    48   43   44      ar
    49   44   70       1
    50    5   45       1
    51    5   46       1
    52    6   47       1
    53    8   48       1
    54    9   49       1
    55   10   50       1
    56   11   51       1
    57   12   52       1
    58   14   53       1
    59   18   54       1
    60   18   55       1
    61   20   56       1
    62   43   69       1
    63   28   57       1
    64   28   58       1
    65   29   59       1
    66   31   60       1
    67   32   61       1
    68   33   62       1
    69   34   63       1
    70   35   64       1
    71   37   65       1
    72   41   66       1
    73   41   67       1
    74   42   68       1
@<TRIPOS>SUBSTRUCTURE
     1 NAD1248     1 GROUP             4 A     NAD     0 **** NAD A1248
