@<TRIPOS>MOLECULE
5dw0_PLS_2_ligand
   36    36     1     0     0
SMALL
NO_CHARGES


@<TRIPOS>ATOM
     1 N           -4.5480   -37.9590   -45.0280 N.3          1 PLS401   0.0000
     2 CA          -4.9700   -36.8400   -45.8740 C.3          1 PLS401   0.0000
     3 CB          -5.9340   -37.2660   -46.9670 C.3          1 PLS401   0.0000
     4 OG          -7.2380   -37.5520   -46.4040 O.3          1 PLS401   0.0000
     5 C           -5.6030   -35.7410   -45.0600 C.2          1 PLS401   0.0000
     6 O           -6.1100   -34.7840   -45.7060 O.co2        1 PLS401   0.0000
     7 OXT         -5.5670   -35.8310   -43.7770 O.co2        1 PLS401  -1.0000
     8 N1          -1.4140   -41.6130   -43.0990 N.ar         1 PLS401   0.0000
     9 C2          -2.1070   -40.6350   -42.4760 C.ar         1 PLS401   0.0000
    10 C2A         -2.1010   -40.5270   -40.9840 C.3          1 PLS401   0.0000
    11 C3          -2.9160   -39.6670   -43.2270 C.ar         1 PLS401   0.0000
    12 O3          -3.6170   -38.6810   -42.5790 O.3          1 PLS401   0.0000
    13 C4          -2.9180   -39.7890   -44.6890 C.ar         1 PLS401   0.0000
    14 C4A         -3.6640   -38.9040   -45.6100 C.3          1 PLS401   0.0000
    15 C5          -2.1450   -40.8820   -45.3110 C.ar         1 PLS401   0.0000
    16 C6          -1.4240   -41.7310   -44.4590 C.ar         1 PLS401   0.0000
    17 C5A         -2.1360   -41.0360   -46.8340 C.3          1 PLS401   0.0000
    18 O4P         -1.4950   -39.9170   -47.5300 O.3          1 PLS401   0.0000
    19 P            0.0250   -39.9630   -48.1220 P.3          1 PLS401   0.0000
    20 O1P         -0.1620   -41.1600   -49.0370 O.co2        1 PLS401   0.0000
    21 O2P          1.0650   -40.1540   -47.0740 O.co2        1 PLS401  -1.0000
    22 O3P          0.2650   -38.5680   -48.7200 O.co2        1 PLS401  -1.0000
    23 HA          -4.1545   -36.4643   -46.3142 H            1 PLS401   0.0000
    24 HB1         -5.5814   -38.0869   -47.4163 H            1 PLS401   0.0000
    25 HB2         -6.0187   -36.5292   -47.6378 H            1 PLS401   0.0000
    26 HG          -7.8622   -37.8310   -47.1337 H            1 PLS401   0.0000
    27 H2A1        -2.6643   -39.7497   -40.7038 H            1 PLS401   0.0000
    28 H2A2        -2.4713   -41.3671   -40.5875 H            1 PLS401   0.0000
    29 H2A3        -1.1635   -40.3921   -40.6633 H            1 PLS401   0.0000
    30 H8          -4.1638   -38.0288   -43.1040 H            1 PLS401   0.0000
    31 H4A1        -2.9922   -38.3954   -46.1485 H            1 PLS401   0.0000
    32 H4A2        -4.2043   -39.4876   -46.2162 H            1 PLS401   0.0000
    33 H11         -0.8857   -42.4658   -44.8718 H            1 PLS401   0.0000
    34 H5A1        -3.0819   -41.1059   -47.1508 H            1 PLS401   0.0000
    35 H5A2        -1.6443   -41.8757   -47.0645 H            1 PLS401   0.0000
    36 H14         -5.3712   -38.4503   -44.7435 H            1 PLS401   0.0000
@<TRIPOS>BOND
     1    1    2       1
     2    1   14       1
     3    2    3       1
     4    2    5       1
     5    3    4       1
     6    5    6      ar
     7    5    7      ar
     8    8    9      ar
     9    8   16      ar
    10    9   10       1
    11    9   11      ar
    12   11   12       1
    13   11   13      ar
    14   13   14       1
    15   13   15      ar
    16   15   16      ar
    17   15   17       1
    18   17   18       1
    19   18   19       1
    20   19   20      ar
    21   19   21      ar
    22   19   22      ar
    23   17   35       1
    24    2   23       1
    25    3   24       1
    26    3   25       1
    27    4   26       1
    28    1   36       1
    29   10   27       1
    30   10   28       1
    31   10   29       1
    32   12   30       1
    33   14   31       1
    34   14   32       1
    35   16   33       1
    36   17   34       1
@<TRIPOS>SUBSTRUCTURE
     1 PLS401      1 GROUP             4 B     PLS     0 **** PLS B 401
