@<TRIPOS>MOLECULE
1jeh_FAD_1_ligand
   84    89     1     0     0
SMALL
NO_CHARGES


@<TRIPOS>ATOM
     1 PA          43.9110    84.2780    12.7710 P.3          1 FAD480   0.0000
     2 O1A         43.3040    83.1460    12.0330 O.co2        1 FAD480   0.0000
     3 O2A         45.2460    84.4360    12.8520 O.co2        1 FAD480  -1.0000
     4 O5B         43.4040    85.3540    11.8230 O.3          1 FAD480   0.0000
     5 C5B         43.3020    86.7680    12.1700 C.3          1 FAD480   0.0000
     6 C4B         43.4600    87.5610    10.8560 C.3          1 FAD480   0.0000
     7 O4B         43.6070    88.9650    11.2420 O.3          1 FAD480   0.0000
     8 C3B         44.6440    87.2810     9.9150 C.3          1 FAD480   0.0000
     9 O3B         44.3360    86.6170     8.7350 O.3          1 FAD480   0.0000
    10 C2B         45.3790    88.6160     9.7890 C.3          1 FAD480   0.0000
    11 O2B         45.8370    88.8450     8.4870 O.3          1 FAD480   0.0000
    12 C1B         44.2800    89.5810    10.0990 C.3          1 FAD480   0.0000
    13 N9A         44.6840    90.8610    10.6560 N.pl3        1 FAD480   0.0000
    14 C8A         45.6300    91.0720    11.6240 C.2          1 FAD480   0.0000
    15 N7A         45.7850    92.3560    11.9230 N.2          1 FAD480   0.0000
    16 C5A         44.8940    93.0110    11.1090 C.ar         1 FAD480   0.0000
    17 C6A         44.5780    94.4310    10.9540 C.ar         1 FAD480   0.0000
    18 N6A         45.1590    95.3860    11.6380 N.pl3        1 FAD480   0.0000
    19 N1A         43.6170    94.7080    10.0290 N.ar         1 FAD480   0.0000
    20 C2A         42.9910    93.7460     9.3000 C.ar         1 FAD480   0.0000
    21 N3A         43.2190    92.4320     9.3740 N.ar         1 FAD480   0.0000
    22 C4A         44.1780    92.1080    10.2930 C.ar         1 FAD480   0.0000
    23 N1          44.4450    75.5560    15.8570 N.2          1 FAD480   0.0000
    24 C2          43.5690    74.5710    15.9950 C.2          1 FAD480   0.0000
    25 O2          42.6020    74.6760    16.6650 O.2          1 FAD480   0.0000
    26 N3          43.7520    73.3140    15.3680 N.pl3        1 FAD480   0.0000
    27 C4          44.8390    73.0640    14.5750 C.2          1 FAD480   0.0000
    28 O4          44.9370    71.9840    14.0360 O.2          1 FAD480   0.0000
    29 C4X         45.7970    74.1330    14.4250 C.2          1 FAD480   0.0000
    30 N5          46.8990    73.9270    13.6770 N.2          1 FAD480   0.0000
    31 C5X         47.7790    74.9540    13.5470 C.ar         1 FAD480   0.0000
    32 C6          48.9060    74.7210    12.7440 C.ar         1 FAD480   0.0000
    33 C7          49.8370    75.6900    12.5390 C.ar         1 FAD480   0.0000
    34 C7M         51.0260    75.4100    11.6490 C.3          1 FAD480   0.0000
    35 C8          49.6640    76.9860    13.1500 C.ar         1 FAD480   0.0000
    36 C8M         50.6430    78.1100    12.9280 C.3          1 FAD480   0.0000
    37 C9          48.5560    77.2160    13.9650 C.ar         1 FAD480   0.0000
    38 C9A         47.6140    76.2220    14.1630 C.ar         1 FAD480   0.0000
    39 N10         46.4390    76.3930    14.9520 N.pl3        1 FAD480   0.0000
    40 C10         45.5550    75.3930    15.0960 C.2          1 FAD480   0.0000
    41 C1'         46.1900    77.7160    15.5800 C.3          1 FAD480   0.0000
    42 C2'         45.1190    78.5080    14.7630 C.3          1 FAD480   0.0000
    43 O2'         45.6590    78.7910    13.4790 O.3          1 FAD480   0.0000
    44 C3'         44.7180    79.7960    15.4710 C.3          1 FAD480   0.0000
    45 O3'         44.2760    79.4700    16.7820 O.3          1 FAD480   0.0000
    46 C4'         43.5340    80.4260    14.7320 C.3          1 FAD480   0.0000
    47 O4'         43.9400    80.8950    13.4230 O.3          1 FAD480   0.0000
    48 C5'         42.9470    81.5590    15.5840 C.3          1 FAD480   0.0000
    49 O5'         41.9470    82.4800    14.7400 O.3          1 FAD480   0.0000
    50 P           42.0130    83.9910    14.8780 P.3          1 FAD480   0.0000
    51 O1P         40.6970    84.4420    14.1820 O.co2        1 FAD480   0.0000
    52 O2P         42.1560    84.4280    16.1850 O.co2        1 FAD480  -1.0000
    53 O3P         43.2050    84.4890    14.1770 O.3          1 FAD480   0.0000
    54 H5B1        44.0264    87.0181    12.8124 H            1 FAD480   0.0000
    55 H5B2        42.4109    86.9581    12.5820 H            1 FAD480   0.0000
    56 H4B         42.6142    87.4679    10.3308 H            1 FAD480   0.0000
    57 H3B         45.2590    86.6748    10.4194 H            1 FAD480   0.0000
    58 H5          43.6830    87.1604     8.2074 H            1 FAD480   0.0000
    59 H2B         46.1227    88.6859    10.4538 H            1 FAD480   0.0000
    60 H7          45.0600    88.8572     7.8576 H            1 FAD480   0.0000
    61 H1B         43.6596    89.6954     9.3231 H            1 FAD480   0.0000
    62 H8A         46.1490    90.3364    12.0594 H            1 FAD480   0.0000
    63 H6A1        44.8986    96.3394    11.4860 H            1 FAD480   0.0000
    64 H6A2        45.8628    95.1613    12.3119 H            1 FAD480   0.0000
    65 H2A         42.2960    94.0502     8.6485 H            1 FAD480   0.0000
    66 H13         43.0724    72.5939    15.5078 H            1 FAD480   0.0000
    67 H14         49.0264    73.8259    12.3148 H            1 FAD480   0.0000
    68 H7M1        51.6085    76.2217    11.6058 H            1 FAD480   0.0000
    69 H7M2        51.5490    74.6439    12.0226 H            1 FAD480   0.0000
    70 H7M3        50.7072    75.1791    10.7297 H            1 FAD480   0.0000
    71 H8M1        50.3440    78.9177    13.4361 H            1 FAD480   0.0000
    72 H8M2        51.5486    77.8313    13.2478 H            1 FAD480   0.0000
    73 H8M3        50.6861    78.3268    11.9527 H            1 FAD480   0.0000
    74 H21         48.4416    78.1047    14.4090 H            1 FAD480   0.0000
    75 H1'1        47.0427    78.2379    15.5999 H            1 FAD480   0.0000
    76 H1'2        45.8597    77.5813    16.5142 H            1 FAD480   0.0000
    77 H2'         44.3076    77.9341    14.6527 H            1 FAD480   0.0000
    78 H25         45.2699    79.6454    13.1347 H            1 FAD480   0.0000
    79 H3'         45.4887    80.4321    15.5075 H            1 FAD480   0.0000
    80 H27         44.4710    80.2326    17.3988 H            1 FAD480   0.0000
    81 H4'         42.8301    79.7261    14.6111 H            1 FAD480   0.0000
    82 H29         43.7822    81.8803    13.3582 H            1 FAD480   0.0000
    83 H5'1        43.6953    82.1254    15.9293 H            1 FAD480   0.0000
    84 H5'2        42.4483    81.1603    16.3536 H            1 FAD480   0.0000
@<TRIPOS>BOND
     1    1    2      ar
     2    1    3      ar
     3    1    4       1
     4    1   53       1
     5    4    5       1
     6    5    6       1
     7    6    7       1
     8    6    8       1
     9    7   12       1
    10    8    9       1
    11    8   10       1
    12   10   11       1
    13   10   12       1
    14   12   13       1
    15   13   14       1
    16   13   22       1
    17   14   15       2
    18   15   16       1
    19   16   17      ar
    20   16   22      ar
    21   17   18       1
    22   17   19      ar
    23   19   20      ar
    24   20   21      ar
    25   21   22      ar
    26   23   24       1
    27   23   40       2
    28   24   25       2
    29   24   26       1
    30   26   27       1
    31   27   28       2
    32   27   29       1
    33   29   30       2
    34   29   40       1
    35   30   31       1
    36   31   32      ar
    37   31   38      ar
    38   32   33      ar
    39   33   34       1
    40   33   35      ar
    41   35   36       1
    42   35   37      ar
    43   37   38      ar
    44   38   39       1
    45   39   40       1
    46   39   41       1
    47   41   42       1
    48   42   43       1
    49   42   44       1
    50   44   45       1
    51   44   46       1
    52   46   47       1
    53   46   48       1
    54   48   49       1
    55   49   50       1
    56   50   51      ar
    57   50   52      ar
    58   50   53       1
    59   48   84       1
    60    5   54       1
    61    5   55       1
    62    6   56       1
    63    8   57       1
    64    9   58       1
    65   10   59       1
    66   11   60       1
    67   12   61       1
    68   14   62       1
    69   18   63       1
    70   18   64       1
    71   20   65       1
    72   26   66       1
    73   32   67       1
    74   34   68       1
    75   34   69       1
    76   34   70       1
    77   36   71       1
    78   36   72       1
    79   36   73       1
    80   37   74       1
    81   41   75       1
    82   41   76       1
    83   42   77       1
    84   43   78       1
    85   44   79       1
    86   45   80       1
    87   46   81       1
    88   47   82       1
    89   48   83       1
@<TRIPOS>SUBSTRUCTURE
     1 FAD480      1 GROUP             4 A     FAD     0 **** FAD A 480
