@<TRIPOS>MOLECULE
1m9a_GTX_1_ligand
   54    53     1     0     0
SMALL
NO_CHARGES


@<TRIPOS>ATOM
     1 N1          76.2410    60.0050    -5.6480 N.4          1 GTX220   1.0000
     2 CA1         75.1510    59.3490    -6.3230 C.3          1 GTX220   0.0000
     3 C1          73.9050    59.6880    -5.4940 C.2          1 GTX220   0.0000
     4 O11         72.8100    59.6740    -6.0480 O.co2        1 GTX220   0.0000
     5 O12         74.0350    59.9830    -4.3020 O.co2        1 GTX220  -1.0000
     6 CB1         75.4630    57.8530    -6.3870 C.3          1 GTX220   0.0000
     7 CG1         74.3470    57.0820    -7.1130 C.3          1 GTX220   0.0000
     8 CD1         74.5670    55.5810    -7.1610 C.2          1 GTX220   0.0000
     9 OE1         75.5600    55.0250    -6.6650 O.2          1 GTX220   0.0000
    10 N2          73.5710    54.9470    -7.7780 N.am         1 GTX220   0.0000
    11 CA2         73.5370    53.4970    -7.9260 C.3          1 GTX220   0.0000
    12 C2          73.1020    53.1200    -9.3250 C.2          1 GTX220   0.0000
    13 O2          72.7150    51.9500    -9.5400 O.2          1 GTX220   0.0000
    14 CB2         72.5350    52.8830    -6.9640 C.3          1 GTX220   0.0000
    15 SG2         72.8260    53.1760    -5.2030 S.3          1 GTX220   0.0000
    16 C1S         73.7310    51.8290    -4.3780 C.3          1 GTX220   0.0000
    17 C2S         73.1090    51.2530    -3.1100 C.3          1 GTX220   0.0000
    18 C3S         73.5710    52.0870    -1.8910 C.3          1 GTX220   0.0000
    19 C4S         73.0220    51.6370    -0.4940 C.3          1 GTX220   0.0000
    20 C5S         73.4030    52.3940     0.8300 C.3          1 GTX220   0.0000
    21 C6S         74.0960    53.7780     0.7140 C.3          1 GTX220   0.0000
    22 N3          73.1500    54.0760   -10.2600 N.am         1 GTX220   0.0000
    23 CA3         72.7260    53.7930   -11.6230 C.3          1 GTX220   0.0000
    24 C3          73.8500    53.6010   -12.5960 C.2          1 GTX220   0.0000
    25 O31         73.5250    53.4090   -13.7680 O.co2        1 GTX220   0.0000
    26 O32         75.0080    53.6750   -12.1830 O.co2        1 GTX220  -1.0000
    27 H1          77.0936    59.8251    -6.1387 H            1 GTX220   0.0000
    28 H2          76.0726    60.9904    -5.6225 H            1 GTX220   0.0000
    29 HA1         75.0539    59.7159    -7.2482 H            1 GTX220   0.0000
    30 HB11        75.5521    57.4983    -5.4563 H            1 GTX220   0.0000
    31 HB12        76.3239    57.7201    -6.8782 H            1 GTX220   0.0000
    32 HG11        74.2889    57.4218    -8.0517 H            1 GTX220   0.0000
    33 HG12        73.4836    57.2587    -6.6405 H            1 GTX220   0.0000
    34 H8          72.8176    55.4864    -8.1541 H            1 GTX220   0.0000
    35 HA2         74.4462    53.1214    -7.7462 H            1 GTX220   0.0000
    36 HB21        72.5377    51.8941    -7.1123 H            1 GTX220   0.0000
    37 HB22        71.6328    53.2513    -7.1886 H            1 GTX220   0.0000
    38 H1S1        74.6374    52.1768    -4.1384 H            1 GTX220   0.0000
    39 H1S2        73.8240    51.0810    -5.0352 H            1 GTX220   0.0000
    40 H2S1        73.4015    50.3036    -2.9957 H            1 GTX220   0.0000
    41 H2S2        72.1121    51.2884    -3.1808 H            1 GTX220   0.0000
    42 H3S1        73.2824    53.0325    -2.0417 H            1 GTX220   0.0000
    43 H3S2        74.5694    52.0451    -1.8539 H            1 GTX220   0.0000
    44 H4S1        73.3151    50.6890    -0.3695 H            1 GTX220   0.0000
    45 H4S2        72.0248    51.6717    -0.5600 H            1 GTX220   0.0000
    46 H5S1        74.0181    51.7974     1.3455 H            1 GTX220   0.0000
    47 H5S2        72.5580    52.5286     1.3475 H            1 GTX220   0.0000
    48 H6S1        74.2774    54.1377     1.6293 H            1 GTX220   0.0000
    49 H6S2        74.9586    53.6783     0.2180 H            1 GTX220   0.0000
    50 H6S3        73.4985    54.4096     0.2200 H            1 GTX220   0.0000
    51 H25         73.4789    54.9896   -10.0209 H            1 GTX220   0.0000
    52 HA31        72.1649    54.5574   -11.9407 H            1 GTX220   0.0000
    53 HA32        72.1761    52.9578   -11.6121 H            1 GTX220   0.0000
    54 H28         76.3137    59.6550    -4.7141 H            1 GTX220   0.0000
@<TRIPOS>BOND
     1    1    2       1
     2    2    3       1
     3    2    6       1
     4    3    4      ar
     5    3    5      ar
     6    6    7       1
     7    7    8       1
     8    8    9       2
     9    8   10      am
    10   10   11       1
    11   11   12       1
    12   11   14       1
    13   12   13       2
    14   12   22      am
    15   14   15       1
    16   15   16       1
    17   16   17       1
    18   17   18       1
    19   18   19       1
    20   19   20       1
    21   20   21       1
    22   22   23       1
    23   23   24       1
    24   24   25      ar
    25   24   26      ar
    26    1   27       1
    27    1   28       1
    28    2   29       1
    29    1   54       1
    30    6   30       1
    31    6   31       1
    32    7   32       1
    33    7   33       1
    34   10   34       1
    35   11   35       1
    36   14   36       1
    37   14   37       1
    38   16   38       1
    39   16   39       1
    40   17   40       1
    41   17   41       1
    42   18   42       1
    43   18   43       1
    44   19   44       1
    45   19   45       1
    46   20   46       1
    47   20   47       1
    48   21   48       1
    49   21   49       1
    50   21   50       1
    51   22   51       1
    52   23   52       1
    53   23   53       1
@<TRIPOS>SUBSTRUCTURE
     1 GTX220      1 GROUP             4 A     GTX     0 **** GTX A 220
