@<TRIPOS>MOLECULE
1fdo_MGD_2_ligand
   69    74     1     0     0
SMALL
NO_CHARGES


@<TRIPOS>ATOM
     1 PB          76.3520    41.6960    31.6510 P.3          1 MGD802   0.0000
     2 O1B         75.0560    41.1700    32.0390 O.co2        1 MGD802   0.0000
     3 O2B         76.6630    41.8920    30.2100 O.co2        1 MGD802  -1.0000
     4 O3B         77.4600    40.7100    32.1970 O.3          1 MGD802   0.0000
     5 O3A         77.6100    38.3470    32.7580 O.3          1 MGD802   0.0000
     6 PA          77.6330    39.7670    33.4620 P.3          1 MGD802   0.0000
     7 O1A         78.9980    40.0690    33.9940 O.co2        1 MGD802   0.0000
     8 O2A         76.4570    39.9520    34.3470 O.co2        1 MGD802  -1.0000
     9 O5'         76.6090    43.0440    32.4520 O.3          1 MGD802   0.0000
    10 C5'         76.7200    43.0610    33.8630 C.3          1 MGD802   0.0000
    11 C4'         76.1710    44.3460    34.4220 C.3          1 MGD802   0.0000
    12 O4'         77.0000    45.4560    34.1950 O.3          1 MGD802   0.0000
    13 C3'         74.8410    44.6860    33.7710 C.3          1 MGD802   0.0000
    14 O3'         73.8410    44.4940    34.7580 O.3          1 MGD802   0.0000
    15 C2'         74.9890    46.1650    33.3740 C.3          1 MGD802   0.0000
    16 O2'         73.8480    46.9800    33.6990 O.3          1 MGD802   0.0000
    17 C1'         76.1290    46.5710    34.2610 C.3          1 MGD802   0.0000
    18 N9          76.6950    47.8850    33.8350 N.pl3        1 MGD802   0.0000
    19 C8          76.5010    48.6110    32.6750 C.2          1 MGD802   0.0000
    20 N7          77.1440    49.7580    32.6860 N.2          1 MGD802   0.0000
    21 C5          77.7970    49.7780    33.9240 C.2          1 MGD802   0.0000
    22 C6          78.6430    50.7350    34.5320 C.2          1 MGD802   0.0000
    23 O6          79.0200    51.7710    33.9610 O.2          1 MGD802   0.0000
    24 N1          79.0790    50.3980    35.7980 N.pl3        1 MGD802   0.0000
    25 C2          78.7280    49.2330    36.4240 C.2          1 MGD802   0.0000
    26 N2          79.1730    48.9730    37.6560 N.pl3        1 MGD802   0.0000
    27 N3          77.9450    48.3580    35.8310 N.2          1 MGD802   0.0000
    28 C4          77.5160    48.6610    34.6140 C.2          1 MGD802   0.0000
    29 C10         78.4630    38.0880    31.6530 C.3          1 MGD802   0.0000
    30 C11         78.5480    36.5880    31.3990 C.3          1 MGD802   0.0000
    31 O11         77.2410    36.0290    31.2650 O.3          1 MGD802   0.0000
    32 C12         79.3760    36.2680    30.1580 C.2          1 MGD802   0.0000
    33 S12         80.9270    37.0860    29.9020 S.2          1 MGD802   0.0000
    34 C13         78.9370    35.2570    29.2690 C.2          1 MGD802   0.0000
    35 S13         79.8120    34.9340    27.7680 S.2          1 MGD802   0.0000
    36 C14         77.6650    34.4840    29.5640 C.3          1 MGD802   0.0000
    37 N15         76.5990    34.9470    28.6940 N.pl3        1 MGD802   0.0000
    38 C16         75.3270    34.5850    29.0880 C.2          1 MGD802   0.0000
    39 C17         74.2350    34.6770    28.1610 C.2          1 MGD802   0.0000
    40 O17         74.4010    34.8710    26.9520 O.2          1 MGD802   0.0000
    41 N18         72.9770    34.3610    28.6610 N.pl3        1 MGD802   0.0000
    42 C19         72.7920    33.9640    29.9600 C.2          1 MGD802   0.0000
    43 N19         71.5790    33.7920    30.4420 N.pl3        1 MGD802   0.0000
    44 N20         73.8190    33.8560    30.7850 N.2          1 MGD802   0.0000
    45 C21         75.0860    34.1650    30.4020 C.2          1 MGD802   0.0000
    46 N22         76.0930    34.0170    31.3090 N.pl3        1 MGD802   0.0000
    47 C23         77.3320    34.6750    30.9880 C.3          1 MGD802   0.0000
    48 H5'1        77.6833    42.9767    34.1179 H            1 MGD802   0.0000
    49 H5'2        76.2062    42.2915    34.2424 H            1 MGD802   0.0000
    50 H4'         76.0330    44.2394    35.4067 H            1 MGD802   0.0000
    51 H3'         74.6733    44.1116    32.9698 H            1 MGD802   0.0000
    52 H5          74.0201    45.0967    35.5356 H            1 MGD802   0.0000
    53 H2'         75.2335    46.2561    32.4087 H            1 MGD802   0.0000
    54 H7          73.6912    46.9555    34.6863 H            1 MGD802   0.0000
    55 H1'         75.7903    46.6573    35.1979 H            1 MGD802   0.0000
    56 H9          75.9347    48.2988    31.9122 H            1 MGD802   0.0000
    57 H10         79.6798    51.0356    36.2803 H            1 MGD802   0.0000
    58 H11         78.9150    48.1209    38.1113 H            1 MGD802   0.0000
    59 H12         79.7642    49.6304    38.1232 H            1 MGD802   0.0000
    60 H13         79.3770    38.4426    31.8502 H            1 MGD802   0.0000
    61 H14         78.0980    38.5412    30.8398 H            1 MGD802   0.0000
    62 H15         78.9905    36.1621    32.1882 H            1 MGD802   0.0000
    63 H16         77.8266    33.5119    29.3938 H            1 MGD802   0.0000
    64 H17         76.7734    35.4876    27.8710 H            1 MGD802   0.0000
    65 H18         72.1838    34.4252    28.0554 H            1 MGD802   0.0000
    66 H19         71.4545    33.5022    31.3910 H            1 MGD802   0.0000
    67 H20         70.7822    33.9511    29.8592 H            1 MGD802   0.0000
    68 H21         75.9777    33.4834    32.1468 H            1 MGD802   0.0000
    69 H22         78.0616    34.2796    31.5460 H            1 MGD802   0.0000
@<TRIPOS>BOND
     1    1    2      ar
     2    1    3      ar
     3    1    4       1
     4    1    9       1
     5    4    6       1
     6    5    6       1
     7    5   29       1
     8    6    7      ar
     9    6    8      ar
    10    9   10       1
    11   10   11       1
    12   11   12       1
    13   11   13       1
    14   12   17       1
    15   13   14       1
    16   13   15       1
    17   15   16       1
    18   15   17       1
    19   17   18       1
    20   18   19       1
    21   18   28       1
    22   19   20       2
    23   20   21       1
    24   21   22       1
    25   21   28       2
    26   22   23       2
    27   22   24       1
    28   24   25       1
    29   25   26       1
    30   25   27       2
    31   27   28       1
    32   29   30       1
    33   30   31       1
    34   30   32       1
    35   31   47       1
    36   32   33       2
    37   32   34       1
    38   34   35       2
    39   34   36       1
    40   36   37       1
    41   36   47       1
    42   37   38       1
    43   38   39       1
    44   38   45       2
    45   39   40       2
    46   39   41       1
    47   41   42       1
    48   42   43       1
    49   42   44       2
    50   44   45       1
    51   45   46       1
    52   46   47       1
    53   47   69       1
    54   46   68       1
    55   10   48       1
    56   10   49       1
    57   11   50       1
    58   13   51       1
    59   14   52       1
    60   15   53       1
    61   16   54       1
    62   17   55       1
    63   19   56       1
    64   24   57       1
    65   26   58       1
    66   26   59       1
    67   29   60       1
    68   29   61       1
    69   30   62       1
    70   36   63       1
    71   37   64       1
    72   41   65       1
    73   43   66       1
    74   43   67       1
@<TRIPOS>SUBSTRUCTURE
     1 MGD802      1 GROUP             4 A     MGD     0 **** MGD A 802
