@<TRIPOS>MOLECULE
1l8q_ADP_1_ligand
   39    41     1     0     0
SMALL
NO_CHARGES


@<TRIPOS>ATOM
     1 PB          38.6290    78.7300    17.1820 P.3          1 ADP400   0.0000
     2 O1B         39.3650    77.4230    16.8490 O.co2        1 ADP400   0.0000
     3 O2B         37.6300    78.6120    18.2960 O.co2        1 ADP400  -1.0000
     4 O3B         38.1320    79.4600    15.9740 O.co2        1 ADP400  -1.0000
     5 PA          41.2650    79.3060    17.6660 P.3          1 ADP400   0.0000
     6 O1A         41.6490    78.1740    18.6010 O.co2        1 ADP400   0.0000
     7 O2A         41.5320    78.9860    16.2050 O.co2        1 ADP400  -1.0000
     8 O3A         39.7240    79.6780    17.8140 O.3          1 ADP400   0.0000
     9 O5'         41.9960    80.6460    18.1180 O.3          1 ADP400   0.0000
    10 C5'         41.8700    81.8310    17.3530 C.3          1 ADP400   0.0000
    11 C4'         43.0840    82.6630    17.6830 C.3          1 ADP400   0.0000
    12 O4'         42.9330    83.2720    18.9810 O.3          1 ADP400   0.0000
    13 C3'         44.2960    81.7630    17.7810 C.3          1 ADP400   0.0000
    14 O3'         45.3900    82.5560    17.3430 O.3          1 ADP400   0.0000
    15 C2'         44.4010    81.4910    19.2650 C.3          1 ADP400   0.0000
    16 O2'         45.6880    81.1370    19.7430 O.3          1 ADP400   0.0000
    17 C1'         43.9310    82.7810    19.8790 C.3          1 ADP400   0.0000
    18 N9          43.3370    82.4470    21.1800 N.pl3        1 ADP400   0.0000
    19 C8          42.1110    81.9140    21.3910 C.2          1 ADP400   0.0000
    20 N7          41.9000    81.7340    22.7300 N.2          1 ADP400   0.0000
    21 C5          43.0030    82.1340    23.3720 C.ar         1 ADP400   0.0000
    22 C6          43.4440    82.2100    24.7720 C.ar         1 ADP400   0.0000
    23 N6          42.6500    81.8100    25.7780 N.pl3        1 ADP400   0.0000
    24 N1          44.6670    82.6920    25.0210 N.ar         1 ADP400   0.0000
    25 C2          45.4850    83.1090    24.0330 C.ar         1 ADP400   0.0000
    26 N3          45.1360    83.0680    22.7340 N.ar         1 ADP400   0.0000
    27 C4          43.9430    82.6000    22.3550 C.ar         1 ADP400   0.0000
    28 H5'1        41.0342    82.3198    17.6030 H            1 ADP400   0.0000
    29 H5'2        41.8505    81.6150    16.3768 H            1 ADP400   0.0000
    30 H4'         43.2263    83.3638    16.9840 H            1 ADP400   0.0000
    31 H3'         44.1934    80.9247    17.2455 H            1 ADP400   0.0000
    32 H5          46.2306    82.0158    17.3834 H            1 ADP400   0.0000
    33 H2'         43.7566    80.7654    19.5062 H            1 ADP400   0.0000
    34 H7          45.5951    80.5349    20.5360 H            1 ADP400   0.0000
    35 H1'         44.6833    83.4322    19.9786 H            1 ADP400   0.0000
    36 H9          41.4547    81.6850    20.6721 H            1 ADP400   0.0000
    37 H10         42.9712    81.8709    26.7230 H            1 ADP400   0.0000
    38 H11         41.7374    81.4511    25.5823 H            1 ADP400   0.0000
    39 H12         46.3881    83.4633    24.2758 H            1 ADP400   0.0000
@<TRIPOS>BOND
     1    1    2      ar
     2    1    3      ar
     3    1    4      ar
     4    1    8       1
     5    5    6      ar
     6    5    7      ar
     7    5    8       1
     8    5    9       1
     9    9   10       1
    10   10   11       1
    11   11   12       1
    12   11   13       1
    13   12   17       1
    14   13   14       1
    15   13   15       1
    16   15   16       1
    17   15   17       1
    18   17   18       1
    19   18   19       1
    20   18   27       1
    21   19   20       2
    22   20   21       1
    23   21   22      ar
    24   21   27      ar
    25   22   23       1
    26   22   24      ar
    27   24   25      ar
    28   25   26      ar
    29   26   27      ar
    30   25   39       1
    31   23   38       1
    32   23   37       1
    33   10   28       1
    34   10   29       1
    35   11   30       1
    36   13   31       1
    37   14   32       1
    38   15   33       1
    39   16   34       1
    40   17   35       1
    41   19   36       1
@<TRIPOS>SUBSTRUCTURE
     1 ADP400      1 GROUP             4 A     ADP     0 **** ADP A 400
