@<TRIPOS>MOLECULE
2ktd_PUC_1_ligand
   58    59     1     0     0
SMALL
NO_CHARGES


@<TRIPOS>ATOM
     1 C1          -5.0760     8.6240    -2.8040 C.2          1 PUC200   0.0000
     2 O1          -6.2640     8.9160    -3.0920 O.co2        1 PUC200   0.0000
     3 C2          -4.2240     7.5880    -3.4760 C.3          1 PUC200   0.0000
     4 O2          -4.6000     9.3840    -1.7520 O.co2        1 PUC200  -1.0000
     5 C3          -4.2920     6.2680    -2.6840 C.3          1 PUC200   0.0000
     6 O3          -7.6800    -0.5280    -3.2800 O.3          1 PUC200   0.0000
     7 C4          -3.4320     5.1720    -3.3200 C.3          1 PUC200   0.0000
     8 C5          -3.5080     3.8760    -2.5480 C.2          1 PUC200   0.0000
     9 O5          -1.2360    -0.6120    -5.9360 O.3          1 PUC200   0.0000
    10 C6          -2.9120     2.6560    -2.9000 C.2          1 PUC200   0.0000
    11 C7          -2.0720     2.3840    -4.1280 C.3          1 PUC200   0.0000
    12 C8          -2.8600     1.6760    -5.2600 C.3          1 PUC200   0.0000
    13 C9          -1.9760     1.4040    -6.5280 C.3          1 PUC200   0.0000
    14 C10         -2.7760     0.4000    -7.3040 C.3          1 PUC200   0.0000
    15 C11         -2.6440    -0.5040    -6.1120 C.3          1 PUC200   0.0000
    16 C12         -3.3520     0.2360    -4.9640 C.3          1 PUC200   0.0000
    17 C13         -4.8600     0.1160    -5.0920 C.2          1 PUC200   0.0000
    18 C14         -5.7520     0.5280    -4.1040 C.2          1 PUC200   0.0000
    19 C15         -7.2520     0.4160    -4.2360 C.3          1 PUC200   0.0000
    20 C16         -7.9520     1.7640    -4.1520 C.3          1 PUC200   0.0000
    21 C17         -9.4680     1.6520    -4.3520 C.3          1 PUC200   0.0000
    22 C18        -10.1680     3.0120    -4.2560 C.3          1 PUC200   0.0000
    23 C19        -11.6800     2.9040    -4.4600 C.3          1 PUC200   0.0000
    24 C20        -12.3720     4.2640    -4.3640 C.3          1 PUC200   0.0000
    25 C21         -0.8640     0.6560    -6.2200 C.3          1 PUC200   0.0000
    26 H1          -3.2769     7.9072    -3.5098 H            1 PUC200   0.0000
    27 H2          -4.5577     7.4353    -4.4062 H            1 PUC200   0.0000
    28 H3          -5.2420     5.9571    -2.6557 H            1 PUC200   0.0000
    29 H4          -3.9674     6.4333    -1.7527 H            1 PUC200   0.0000
    30 H5          -6.8893    -0.8707    -2.7727 H            1 PUC200   0.0000
    31 H6          -2.4808     5.4797    -3.3420 H            1 PUC200   0.0000
    32 H7          -3.7520     5.0112    -4.2537 H            1 PUC200   0.0000
    33 H8          -4.0371     3.8891    -1.6995 H            1 PUC200   0.0000
    34 H9          -3.0572     1.8883    -2.2758 H            1 PUC200   0.0000
    35 H10         -1.3022     1.8026    -3.8645 H            1 PUC200   0.0000
    36 H11         -1.7274     3.2554    -4.4772 H            1 PUC200   0.0000
    37 H12         -3.6416     2.2430    -5.5202 H            1 PUC200   0.0000
    38 H13         -1.7654     2.2311    -7.0491 H            1 PUC200   0.0000
    39 H14         -2.3339     0.0643    -8.1358 H            1 PUC200   0.0000
    40 H15         -3.7120     0.6822    -7.5146 H            1 PUC200   0.0000
    41 H16         -3.0604    -1.3970    -6.2828 H            1 PUC200   0.0000
    42 H17         -3.0338    -0.0833    -4.0714 H            1 PUC200   0.0000
    43 H18         -5.2334    -0.2802    -5.9308 H            1 PUC200   0.0000
    44 H19         -5.3788     0.9187    -3.2625 H            1 PUC200   0.0000
    45 H20         -7.4450     0.0346    -5.1401 H            1 PUC200   0.0000
    46 H21         -7.5786     2.3638    -4.8597 H            1 PUC200   0.0000
    47 H22         -7.7759     2.1612    -3.2513 H            1 PUC200   0.0000
    48 H23         -9.8416     1.0474    -3.6485 H            1 PUC200   0.0000
    49 H24         -9.6455     1.2618    -5.2555 H            1 PUC200   0.0000
    50 H25         -9.7916     3.6174    -4.9573 H            1 PUC200   0.0000
    51 H26         -9.9928     3.4004    -3.3513 H            1 PUC200   0.0000
    52 H27        -12.0577     2.2998    -3.7583 H            1 PUC200   0.0000
    53 H28        -11.8564     2.5156    -5.3645 H            1 PUC200   0.0000
    54 H29        -13.3555     4.1481    -4.5028 H            1 PUC200   0.0000
    55 H30        -12.2072     4.6588    -3.4601 H            1 PUC200   0.0000
    56 H31        -12.0059     4.8746    -5.0662 H            1 PUC200   0.0000
    57 H32         -0.2384     0.6527    -7.0002 H            1 PUC200   0.0000
    58 H33         -0.4045     1.0540    -5.4260 H            1 PUC200   0.0000
@<TRIPOS>BOND
     1    1    2      ar
     2    1    3       1
     3    1    4      ar
     4    3    5       1
     5    5    7       1
     6    6   19       1
     7    7    8       1
     8    8   10       2
     9    9   15       1
    10    9   25       1
    11   10   11       1
    12   11   12       1
    13   12   13       1
    14   12   16       1
    15   13   14       1
    16   13   25       1
    17   14   15       1
    18   15   16       1
    19   16   17       1
    20   17   18       2
    21   18   19       1
    22   19   20       1
    23   20   21       1
    24   21   22       1
    25   22   23       1
    26   23   24       1
    27   25   58       1
    28    3   26       1
    29    3   27       1
    30    5   28       1
    31    5   29       1
    32    6   30       1
    33    7   31       1
    34    7   32       1
    35    8   33       1
    36   10   34       1
    37   11   35       1
    38   11   36       1
    39   12   37       1
    40   13   38       1
    41   14   39       1
    42   14   40       1
    43   15   41       1
    44   16   42       1
    45   17   43       1
    46   18   44       1
    47   19   45       1
    48   20   46       1
    49   20   47       1
    50   21   48       1
    51   21   49       1
    52   22   50       1
    53   22   51       1
    54   23   52       1
    55   23   53       1
    56   24   54       1
    57   24   55       1
    58   24   56       1
    59   25   57       1
@<TRIPOS>SUBSTRUCTURE
     1 PUC200      1 GROUP             4 A     PUC     0 **** PUC A 200
