@<TRIPOS>MOLECULE
2y0m_ACO_1_ligand
   85    87     1     0     0
SMALL
NO_CHARGES


@<TRIPOS>ATOM
     1 N1A        -36.0590   -20.1150    29.9440 N.ar         1 ACO1450   0.0000
     2 C2A        -35.6720   -21.3090    30.4360 C.ar         1 ACO1450   0.0000
     3 N3A        -34.7990   -22.1210    29.8120 N.ar         1 ACO1450   0.0000
     4 C4A        -34.2500   -21.7640    28.6190 C.ar         1 ACO1450   0.0000
     5 C5A        -34.6260   -20.4730    28.0170 C.ar         1 ACO1450   0.0000
     6 C6A        -35.5940   -19.6350    28.7650 C.ar         1 ACO1450   0.0000
     7 N6A        -35.9970   -18.4310    28.2930 N.pl3        1 ACO1450   0.0000
     8 N7A        -33.9460   -20.3760    26.8630 N.2          1 ACO1450   0.0000
     9 C8A        -33.2020   -21.5030    26.7290 C.2          1 ACO1450   0.0000
    10 N9A        -33.3880   -22.3310    27.7730 N.pl3        1 ACO1450   0.0000
    11 C1B        -32.7360   -23.6430    27.9790 C.3          1 ACO1450   0.0000
    12 C2B        -33.4300   -24.7710    27.2360 C.3          1 ACO1450   0.0000
    13 O2B        -34.5240   -25.3320    27.9700 O.3          1 ACO1450   0.0000
    14 C3B        -32.2970   -25.7630    27.0610 C.3          1 ACO1450   0.0000
    15 O3B        -32.1430   -26.5420    28.2410 O.3          1 ACO1450   0.0000
    16 P3B        -32.6510   -28.0640    28.2940 P.3          1 ACO1450   0.0000
    17 O7A        -34.0620   -27.9980    27.7590 O.co2        1 ACO1450   0.0000
    18 O8A        -32.5460   -28.3950    29.7630 O.co2        1 ACO1450  -1.0000
    19 O9A        -31.6910   -28.8110    27.4060 O.co2        1 ACO1450  -1.0000
    20 C4B        -31.0510   -24.9020    26.9420 C.3          1 ACO1450   0.0000
    21 O4B        -31.4040   -23.6160    27.4600 O.3          1 ACO1450   0.0000
    22 C5B        -30.5590   -24.7880    25.5020 C.3          1 ACO1450   0.0000
    23 O5B        -31.6530   -24.6290    24.5930 O.3          1 ACO1450   0.0000
    24 P1A        -31.3670   -24.2690    23.0500 P.3          1 ACO1450   0.0000
    25 O1A        -30.2490   -25.1690    22.5740 O.co2        1 ACO1450   0.0000
    26 O2A        -32.6890   -24.2380    22.3210 O.co2        1 ACO1450  -1.0000
    27 O3A        -30.8060   -22.7770    23.2360 O.3          1 ACO1450   0.0000
    28 P2A        -31.1650   -21.5230    22.3000 P.3          1 ACO1450   0.0000
    29 O4A        -30.9670   -21.8600    20.8400 O.co2        1 ACO1450   0.0000
    30 O5A        -32.4850   -20.9510    22.7460 O.co2        1 ACO1450  -1.0000
    31 O6A        -29.9990   -20.4860    22.6910 O.3          1 ACO1450   0.0000
    32 CBP        -28.5820   -19.2360    24.1780 C.3          1 ACO1450   0.0000
    33 CCP        -29.2540   -20.5750    23.9090 C.3          1 ACO1450   0.0000
    34 CDP        -27.4470   -19.0530    23.1780 C.3          1 ACO1450   0.0000
    35 CEP        -28.0150   -19.2360    25.5880 C.3          1 ACO1450   0.0000
    36 CAP        -29.6620   -18.1440    24.0340 C.3          1 ACO1450   0.0000
    37 OAP        -30.5080   -18.1030    25.1960 O.3          1 ACO1450   0.0000
    38 C9P        -29.1240   -16.7670    23.7460 C.2          1 ACO1450   0.0000
    39 O9P        -28.7000   -16.4940    22.6320 O.2          1 ACO1450   0.0000
    40 N8P        -29.1670   -15.8900    24.7460 N.am         1 ACO1450   0.0000
    41 C7P        -28.7090   -14.5200    24.6160 C.3          1 ACO1450   0.0000
    42 C6P        -27.1870   -14.4260    24.5570 C.3          1 ACO1450   0.0000
    43 C5P        -26.5490   -15.1650    25.7100 C.2          1 ACO1450   0.0000
    44 O5P        -26.7950   -14.8300    26.8570 O.2          1 ACO1450   0.0000
    45 N4P        -25.7310   -16.1660    25.3890 N.am         1 ACO1450   0.0000
    46 C3P        -24.7690   -16.7410    26.3140 C.3          1 ACO1450   0.0000
    47 C2P        -23.6470   -15.7660    26.6530 C.3          1 ACO1450   0.0000
    48 S1P        -22.2880   -16.6260    27.3740 S.3          1 ACO1450   0.0000
    49 C          -21.1560   -16.5690    26.1560 C.2          1 ACO1450   0.0000
    50 O          -21.2070   -15.6660    25.3440 O.2          1 ACO1450   0.0000
    51 CH3        -20.1020   -17.6310    26.0940 C.3          1 ACO1450   0.0000
    52 H2A        -36.0538   -21.6070    31.3109 H            1 ACO1450   0.0000
    53 H6A1       -35.6437   -18.0921    27.4210 H            1 ACO1450   0.0000
    54 H6A2       -36.6478   -17.8811    28.8165 H            1 ACO1450   0.0000
    55 H8A        -32.5958   -21.6929    25.9566 H            1 ACO1450   0.0000
    56 H1B        -32.7096   -23.8532    28.9563 H            1 ACO1450   0.0000
    57 H2B        -33.7453   -24.4500    26.3430 H            1 ACO1450   0.0000
    58 H7         -34.3529   -26.3037    28.1327 H            1 ACO1450   0.0000
    59 H3B        -32.4290   -26.3371    26.2529 H            1 ACO1450   0.0000
    60 H4B        -30.3253   -25.2952    27.5065 H            1 ACO1450   0.0000
    61 H5B1       -30.0541   -25.6175    25.2630 H            1 ACO1450   0.0000
    62 H5B2       -29.9536   -23.9957    25.4258 H            1 ACO1450   0.0000
    63 HCP1       -28.5583   -21.2884    23.8251 H            1 ACO1450   0.0000
    64 HCP2       -29.8709   -20.7981    24.6638 H            1 ACO1450   0.0000
    65 HDP1       -26.9956   -18.1761    23.3429 H            1 ACO1450   0.0000
    66 HDP2       -26.7847   -19.7944    23.2861 H            1 ACO1450   0.0000
    67 HDP3       -27.8158   -19.0685    22.2486 H            1 ACO1450   0.0000
    68 HEP1       -27.5723   -18.3578    25.7693 H            1 ACO1450   0.0000
    69 HEP2       -28.7554   -19.3780    26.2450 H            1 ACO1450   0.0000
    70 HEP3       -27.3442   -19.9722    25.6775 H            1 ACO1450   0.0000
    71 HAP        -30.2392   -18.4019    23.2592 H            1 ACO1450   0.0000
    72 H21        -31.4538   -18.2839    24.9263 H            1 ACO1450   0.0000
    73 H8P        -29.5319   -16.1893    25.6276 H            1 ACO1450   0.0000
    74 H7P1       -29.0341   -13.9954    25.4028 H            1 ACO1450   0.0000
    75 H7P2       -29.0887   -14.1315    23.7764 H            1 ACO1450   0.0000
    76 H6P1       -26.9178   -13.4638    24.5973 H            1 ACO1450   0.0000
    77 H6P2       -26.8686   -14.8255    23.6973 H            1 ACO1450   0.0000
    78 H4P        -25.7815   -16.5413    24.4635 H            1 ACO1450   0.0000
    79 H3P1       -24.3710   -17.5589    25.8985 H            1 ACO1450   0.0000
    80 H3P2       -25.2434   -16.9928    27.1575 H            1 ACO1450   0.0000
    81 H2P1       -23.9869   -15.0839    27.3004 H            1 ACO1450   0.0000
    82 H2P2       -23.3426   -15.3095    25.8170 H            1 ACO1450   0.0000
    83 HH31       -19.5018   -17.4598    25.3127 H            1 ACO1450   0.0000
    84 HH32       -19.5642   -17.6165    26.9369 H            1 ACO1450   0.0000
    85 HH33       -20.5362   -18.5259    25.9910 H            1 ACO1450   0.0000
@<TRIPOS>BOND
     1    1    2      ar
     2    1    6      ar
     3    2    3      ar
     4    3    4      ar
     5    4    5      ar
     6    4   10       1
     7    5    6      ar
     8    5    8       1
     9    6    7       1
    10    8    9       2
    11    9   10       1
    12   10   11       1
    13   11   12       1
    14   11   21       1
    15   12   13       1
    16   12   14       1
    17   14   15       1
    18   14   20       1
    19   15   16       1
    20   16   17      ar
    21   16   18      ar
    22   16   19      ar
    23   20   21       1
    24   20   22       1
    25   22   23       1
    26   23   24       1
    27   24   25      ar
    28   24   26      ar
    29   24   27       1
    30   27   28       1
    31   28   29      ar
    32   28   30      ar
    33   28   31       1
    34   31   33       1
    35   32   33       1
    36   32   34       1
    37   32   35       1
    38   32   36       1
    39   36   37       1
    40   36   38       1
    41   38   39       2
    42   38   40      am
    43   40   41       1
    44   41   42       1
    45   42   43       1
    46   43   44       2
    47   43   45      am
    48   45   46       1
    49   46   47       1
    50   47   48       1
    51   48   49       1
    52   49   50       2
    53   49   51       1
    54    2   52       1
    55    7   53       1
    56    7   54       1
    57    9   55       1
    58   11   56       1
    59   12   57       1
    60   13   58       1
    61   14   59       1
    62   51   85       1
    63   51   84       1
    64   20   60       1
    65   22   61       1
    66   22   62       1
    67   51   83       1
    68   47   82       1
    69   33   63       1
    70   33   64       1
    71   34   65       1
    72   34   66       1
    73   34   67       1
    74   35   68       1
    75   35   69       1
    76   35   70       1
    77   36   71       1
    78   37   72       1
    79   40   73       1
    80   41   74       1
    81   41   75       1
    82   42   76       1
    83   42   77       1
    84   45   78       1
    85   46   79       1
    86   46   80       1
    87   47   81       1
@<TRIPOS>SUBSTRUCTURE
     1 ACO1450     1 GROUP             4 A     ACO     0 **** ACO A1450
