@<TRIPOS>MOLECULE
4je7_BB2_2_ligand
   61    61     1     0     0
SMALL
NO_CHARGES


@<TRIPOS>ATOM
     1 C5          27.3650   -15.9520   -37.9790 C.3          1 BB2201   0.0000
     2 C3          25.9180   -15.9550   -38.4020 C.2          1 BB2201   0.0000
     3 O4          25.0620   -15.3580   -37.7590 O.2          1 BB2201   0.0000
     4 N1          25.6580   -16.6470   -39.5020 N.am         1 BB2201   0.0000
     5 O2          24.3790   -16.7350   -39.9100 O.3          1 BB2201  -1.0000
     6 C6          27.6760   -17.0650   -36.9820 C.3          1 BB2201   0.0000
     7 C12         28.9930   -16.5940   -36.3050 C.2          1 BB2201   0.0000
     8 O13         30.0170   -16.3550   -36.9690 O.2          1 BB2201   0.0000
     9 C7          27.7360   -18.4440   -37.6710 C.3          1 BB2201   0.0000
    10 C8          27.3720   -19.4650   -36.6100 C.3          1 BB2201   0.0000
    11 C9          27.8800   -20.7890   -37.0220 C.3          1 BB2201   0.0000
    12 C10         27.4230   -21.8150   -36.0080 C.3          1 BB2201   0.0000
    13 C11         28.6870   -22.3310   -35.3370 C.3          1 BB2201   0.0000
    14 N14         28.9500   -16.3540   -34.9880 N.am         1 BB2201   0.0000
    15 C15         30.1990   -15.7860   -34.4260 C.3          1 BB2201   0.0000
    16 C16         30.0030   -15.0850   -33.0690 C.3          1 BB2201   0.0000
    17 C18         28.6310   -14.4180   -32.9300 C.3          1 BB2201   0.0000
    18 C17         30.2010   -16.0780   -31.9580 C.3          1 BB2201   0.0000
    19 C19         31.3840   -16.8060   -34.5390 C.2          1 BB2201   0.0000
    20 O20         31.0850   -17.9960   -34.3860 O.2          1 BB2201   0.0000
    21 N21         32.6920   -16.4010   -34.8490 N.am         1 BB2201   0.0000
    22 C22         33.8820   -17.3000   -35.0080 C.3          1 BB2201   0.0000
    23 C23         33.1650   -14.9970   -35.0550 C.3          1 BB2201   0.0000
    24 C24         34.5140   -15.0590   -35.8000 C.3          1 BB2201   0.0000
    25 C25         35.0510   -16.4640   -35.5500 C.3          1 BB2201   0.0000
    26 C26         34.2990   -17.9850   -33.6960 C.3          1 BB2201   0.0000
    27 O27         34.6890   -17.0140   -32.7040 O.3          1 BB2201   0.0000
    28 H1          27.5746   -15.0713   -37.5543 H            1 BB2201   0.0000
    29 H2          27.9377   -16.0761   -38.7893 H            1 BB2201   0.0000
    30 H3          26.3925   -17.0916   -40.0147 H            1 BB2201   0.0000
    31 H4          26.9528   -17.0852   -36.2917 H            1 BB2201   0.0000
    32 H5          28.6577   -18.6182   -38.0177 H            1 BB2201   0.0000
    33 H6          27.0827   -18.4822   -38.4271 H            1 BB2201   0.0000
    34 H7          26.3778   -19.5039   -36.5093 H            1 BB2201   0.0000
    35 H8          27.7854   -19.2039   -35.7377 H            1 BB2201   0.0000
    36 H9          28.8792   -20.7710   -37.0569 H            1 BB2201   0.0000
    37 H10         27.5190   -21.0229   -37.9248 H            1 BB2201   0.0000
    38 H11         26.9409   -22.5633   -36.4636 H            1 BB2201   0.0000
    39 H12         26.8190   -21.3915   -35.3328 H            1 BB2201   0.0000
    40 H13         28.4441   -23.0176   -34.6517 H            1 BB2201   0.0000
    41 H14         29.2848   -22.7432   -36.0245 H            1 BB2201   0.0000
    42 H15         29.1629   -21.5714   -34.8937 H            1 BB2201   0.0000
    43 H16         28.1420   -16.5424   -34.4297 H            1 BB2201   0.0000
    44 H17         30.4434   -15.0483   -35.0554 H            1 BB2201   0.0000
    45 H18         30.7033   -14.3766   -32.9811 H            1 BB2201   0.0000
    46 H19         28.5620   -13.9813   -32.0330 H            1 BB2201   0.0000
    47 H20         28.5216   -13.7283   -33.6458 H            1 BB2201   0.0000
    48 H21         27.9138   -15.1089   -33.0204 H            1 BB2201   0.0000
    49 H22         30.0736   -15.6223   -31.0770 H            1 BB2201   0.0000
    50 H23         29.5349   -16.8182   -32.0498 H            1 BB2201   0.0000
    51 H24         31.1262   -16.4541   -32.0081 H            1 BB2201   0.0000
    52 H25         33.6589   -18.0072   -35.6789 H            1 BB2201   0.0000
    53 H26         33.2850   -14.5452   -34.1710 H            1 BB2201   0.0000
    54 H27         32.4979   -14.4898   -35.6007 H            1 BB2201   0.0000
    55 H28         35.1455   -14.3735   -35.4376 H            1 BB2201   0.0000
    56 H29         34.3804   -14.9047   -36.7789 H            1 BB2201   0.0000
    57 H30         35.3895   -16.8595   -36.4038 H            1 BB2201   0.0000
    58 H31         35.7922   -16.4343   -34.8794 H            1 BB2201   0.0000
    59 H32         35.0706   -18.5949   -33.8770 H            1 BB2201   0.0000
    60 H33         33.5281   -18.5175   -33.3463 H            1 BB2201   0.0000
    61 H34         34.1818   -16.1648   -32.8513 H            1 BB2201   0.0000
@<TRIPOS>BOND
     1    1    2       1
     2    1    6       1
     3    2    3       2
     4    2    4      am
     5    4    5       1
     6    6    7       1
     7    6    9       1
     8    7    8       2
     9    7   14      am
    10    9   10       1
    11   10   11       1
    12   11   12       1
    13   12   13       1
    14   14   15       1
    15   15   16       1
    16   15   19       1
    17   16   17       1
    18   16   18       1
    19   19   20       2
    20   19   21      am
    21   21   22       1
    22   21   23       1
    23   22   25       1
    24   22   26       1
    25   23   24       1
    26   24   25       1
    27   26   27       1
    28    1   28       1
    29    1   29       1
    30    4   30       1
    31   27   61       1
    32    6   31       1
    33    9   32       1
    34    9   33       1
    35   10   34       1
    36   10   35       1
    37   11   36       1
    38   11   37       1
    39   12   38       1
    40   12   39       1
    41   13   40       1
    42   13   41       1
    43   13   42       1
    44   14   43       1
    45   15   44       1
    46   16   45       1
    47   17   46       1
    48   17   47       1
    49   17   48       1
    50   18   49       1
    51   18   50       1
    52   18   51       1
    53   22   52       1
    54   23   53       1
    55   23   54       1
    56   24   55       1
    57   24   56       1
    58   25   57       1
    59   25   58       1
    60   26   59       1
    61   26   60       1
@<TRIPOS>SUBSTRUCTURE
     1 BB2201      1 GROUP             4 B     BB2     0 **** BB2 B 201
