@<TRIPOS>MOLECULE
4cf6_CBD_2_ligand
   68    73     1     0     0
SMALL
NO_CHARGES


@<TRIPOS>ATOM
     1 C1         -18.6070    31.7430    24.7380 C.ar         1 CBD1276   0.0000
     2 SA         -19.7080    33.0130    25.2740 S.o2         1 CBD1276   0.0000
     3 O1A        -18.9500    34.0050    26.1220 O.co2        1 CBD1276   0.0000
     4 O2A        -20.3020    33.7200    24.0800 O.co2        1 CBD1276   0.0000
     5 O3A        -20.8070    32.3830    26.0990 O.co2        1 CBD1276  -1.0000
     6 C2         -17.2670    32.0420    24.5710 C.ar         1 CBD1276   0.0000
     7 N2         -16.7970    33.3710    24.8270 N.pl3        1 CBD1276   0.0000
     8 C3         -16.3800    31.0400    24.1500 C.ar         1 CBD1276   0.0000
     9 C4         -15.0380    31.3430    23.9790 C.2          1 CBD1276   0.0000
    10 O4         -14.6470    32.4710    24.1950 O.2          1 CBD1276   0.0000
    11 C5         -14.1440    30.3690    23.5620 C.ar         1 CBD1276   0.0000
    12 C6         -12.7990    30.6800    23.3940 C.ar         1 CBD1276   0.0000
    13 C7         -11.9150    29.7040    22.9790 C.ar         1 CBD1276   0.0000
    14 C8         -12.3620    28.4250    22.7320 C.ar         1 CBD1276   0.0000
    15 C9         -13.6950    28.0990    22.8930 C.ar         1 CBD1276   0.0000
    16 C10        -14.5980    29.0720    23.3110 C.ar         1 CBD1276   0.0000
    17 C11        -15.9530    28.7600    23.4830 C.2          1 CBD1276   0.0000
    18 O11        -16.3390    27.6300    23.2590 O.2          1 CBD1276   0.0000
    19 C12        -16.8520    29.7460    23.9010 C.ar         1 CBD1276   0.0000
    20 C13        -18.2280    29.4650    24.0900 C.ar         1 CBD1276   0.0000
    21 C14        -19.0790    30.4760    24.4940 C.ar         1 CBD1276   0.0000
    22 NB         -18.6660    28.1250    23.8090 N.pl3        1 CBD1276   0.0000
    23 CB1        -20.7870    25.2000    24.8460 C.ar         1 CBD1276   0.0000
    24 SB         -20.8870    23.5150    24.2940 S.o2         1 CBD1276   0.0000
    25 O1B        -21.0320    22.5710    25.4580 O.co2        1 CBD1276   0.0000
    26 O2B        -22.0610    23.3470    23.3610 O.co2        1 CBD1276   0.0000
    27 O3B        -19.6130    23.1680    23.5620 O.co2        1 CBD1276  -1.0000
    28 CB2        -21.5850    25.7470    25.8710 C.ar         1 CBD1276   0.0000
    29 CB3        -21.4040    27.0830    26.2150 C.ar         1 CBD1276   0.0000
    30 CB4        -20.4590    27.8840    25.5520 C.ar         1 CBD1276   0.0000
    31 CB5        -19.6700    27.3530    24.5360 C.ar         1 CBD1276   0.0000
    32 CB6        -19.8430    26.0130    24.1930 C.ar         1 CBD1276   0.0000
    33 NC         -22.5920    25.0180    26.6380 N.pl3        1 CBD1276   0.0000
    34 NC1        -24.1520    24.1040    25.0100 N.ar         1 CBD1276   0.0000
    35 CC2        -24.9410    23.0900    24.5870 C.ar         1 CBD1276   0.0000
    36 CL         -25.8540    23.2350    23.1090 Cl           1 CBD1276   0.0000
    37 NC3        -25.0330    21.9510    25.3090 N.ar         1 CBD1276   0.0000
    38 CC4        -24.3440    21.8260    26.4460 C.ar         1 CBD1276   0.0000
    39 NC5        -23.5500    22.8310    26.8660 N.ar         1 CBD1276   0.0000
    40 CC6        -23.4550    23.9710    26.1470 C.ar         1 CBD1276   0.0000
    41 ND         -24.4330    20.6070    27.2080 N.pl3        1 CBD1276   0.0000
    42 CD1        -22.2570    19.5840    27.7940 C.ar         1 CBD1276   0.0000
    43 SD         -22.0000    19.0200    26.1340 S.o2         1 CBD1276   0.0000
    44 O1D        -22.1480    17.5180    26.0800 O.co2        1 CBD1276   0.0000
    45 O2D        -22.9900    19.6420    25.1740 O.co2        1 CBD1276   0.0000
    46 O3D        -20.5960    19.4060    25.7420 O.co2        1 CBD1276  -1.0000
    47 CD2        -23.4030    20.2970    28.1670 C.ar         1 CBD1276   0.0000
    48 CD3        -23.5540    20.7190    29.4800 C.ar         1 CBD1276   0.0000
    49 CD4        -22.5660    20.4290    30.4180 C.ar         1 CBD1276   0.0000
    50 CD5        -21.4250    19.7210    30.0520 C.ar         1 CBD1276   0.0000
    51 CD6        -21.2730    19.3010    28.7400 C.ar         1 CBD1276   0.0000
    52 H1         -15.8288    33.5907    24.7073 H            1 CBD1276   0.0000
    53 H2         -17.4371    34.0789    25.1254 H            1 CBD1276   0.0000
    54 H3         -12.4729    31.6082    23.5733 H            1 CBD1276   0.0000
    55 H4         -10.9476    29.9264    22.8575 H            1 CBD1276   0.0000
    56 H5         -11.7144    27.7242    22.4327 H            1 CBD1276   0.0000
    57 H6         -14.0097    27.1676    22.7099 H            1 CBD1276   0.0000
    58 H7         -20.0532    30.2825    24.6105 H            1 CBD1276   0.0000
    59 HB         -18.2353    27.6710    23.0290 H            1 CBD1276   0.0000
    60 HB3        -21.9566    27.4804    26.9476 H            1 CBD1276   0.0000
    61 HB4        -20.3525    28.8436    25.8124 H            1 CBD1276   0.0000
    62 HB6        -19.2820    25.6199    23.4645 H            1 CBD1276   0.0000
    63 HC         -22.6935    25.2700    27.6004 H            1 CBD1276   0.0000
    64 HD         -25.2019    19.9820    27.0729 H            1 CBD1276   0.0000
    65 HD3        -24.3696    21.2297    29.7521 H            1 CBD1276   0.0000
    66 HD4        -22.6776    20.7326    31.3642 H            1 CBD1276   0.0000
    67 HD5        -20.7198    19.5168    30.7309 H            1 CBD1276   0.0000
    68 HD6        -20.4546    18.7932    28.4710 H            1 CBD1276   0.0000
@<TRIPOS>BOND
     1    1    2       1
     2    1    6      ar
     3    1   21      ar
     4    2    3      ar
     5    2    4      ar
     6    2    5      ar
     7    6    7       1
     8    6    8      ar
     9    8    9       1
    10    8   19      ar
    11    9   10       2
    12    9   11       1
    13   11   12      ar
    14   11   16      ar
    15   12   13      ar
    16   13   14      ar
    17   14   15      ar
    18   15   16      ar
    19   16   17       1
    20   17   18       2
    21   17   19       1
    22   19   20      ar
    23   20   21      ar
    24   20   22       1
    25   22   31       1
    26   23   24       1
    27   23   28      ar
    28   23   32      ar
    29   24   25      ar
    30   24   26      ar
    31   24   27      ar
    32   28   29      ar
    33   28   33       1
    34   29   30      ar
    35   30   31      ar
    36   31   32      ar
    37   33   40       1
    38   34   35      ar
    39   34   40      ar
    40   35   36       1
    41   35   37      ar
    42   37   38      ar
    43   38   39      ar
    44   38   41       1
    45   39   40      ar
    46   41   47       1
    47   42   43       1
    48   42   47      ar
    49   42   51      ar
    50   43   44      ar
    51   43   45      ar
    52   43   46      ar
    53   47   48      ar
    54   48   49      ar
    55   49   50      ar
    56   50   51      ar
    57   51   68       1
    58    7   52       1
    59    7   53       1
    60   12   54       1
    61   13   55       1
    62   14   56       1
    63   15   57       1
    64   21   58       1
    65   22   59       1
    66   50   67       1
    67   29   60       1
    68   30   61       1
    69   32   62       1
    70   33   63       1
    71   41   64       1
    72   49   66       1
    73   48   65       1
@<TRIPOS>SUBSTRUCTURE
     1 CBD1276     1 GROUP             4 B     CBD     0 **** CBD B1276
