@<TRIPOS>MOLECULE
2y74_IMD_1_ligand
    9     9     1     0     0
SMALL
NO_CHARGES


@<TRIPOS>ATOM
     1 N1          36.6340    59.2960    -1.5970 N.2          1 IMD1765   0.0000
     2 C2          37.2400    58.1330    -1.2640 C.2          1 IMD1765   0.0000
     3 N3          38.2220    57.8780    -2.1600 N.pl3        1 IMD1765   0.0000
     4 C4          38.2370    58.8840    -3.0620 C.2          1 IMD1765   0.0000
     5 C5          37.2340    59.7800    -2.7070 C.2          1 IMD1765   0.0000
     6 H1          37.0013    57.5558    -0.4831 H            1 IMD1765   0.0000
     7 H2          38.8563    58.9689    -3.8425 H            1 IMD1765   0.0000
     8 H3          37.0000    60.6265    -3.1852 H            1 IMD1765   0.0000
     9 H4          38.8300    57.0841    -2.1552 H            1 IMD1765   0.0000
@<TRIPOS>BOND
     1    1    2       2
     2    1    5       1
     3    2    3       1
     4    3    4       1
     5    4    5       2
     6    5    8       1
     7    2    6       1
     8    4    7       1
     9    3    9       1
@<TRIPOS>SUBSTRUCTURE
     1 IMD1765     1 GROUP             4 A     IMD     0 **** IMD A1765
