@<TRIPOS>MOLECULE
4fzb_0VJ_15_ligand
   36    38     1     0     0
SMALL
NO_CHARGES


@<TRIPOS>ATOM
     1 C01         34.8530   103.8580   -45.8610 C.ar         1 0VJ301   0.0000
     2 C02         34.4870   102.3530   -46.3880 C.ar         1 0VJ301   0.0000
     3 C03         35.0340   101.8270   -47.5610 C.ar         1 0VJ301   0.0000
     4 C04         35.9890   102.7800   -48.2830 C.ar         1 0VJ301   0.0000
     5 C05         36.3440   104.0990   -47.8240 C.ar         1 0VJ301   0.0000
     6 C06         35.7560   104.6570   -46.5700 C.ar         1 0VJ301   0.0000
     7 C07         36.6480   102.3250   -49.6190 C.2          1 0VJ301   0.0000
     8 C08         37.6380   103.2530   -50.3750 C.2          1 0VJ301   0.0000
     9 C09         37.8780   104.4820   -49.8490 C.2          1 0VJ301   0.0000
    10 C10         37.2820   105.0000   -48.5770 C.2          1 0VJ301   0.0000
    11 C11         38.8650   105.4460   -50.5820 C.3          1 0VJ301   0.0000
    12 C12         40.1860   105.1540   -50.1260 C.ar         1 0VJ301   0.0000
    13 C13         40.9560   105.6310   -51.1280 C.ar         1 0VJ301   0.0000
    14 C14         42.4130   105.4570   -51.0220 C.ar         1 0VJ301   0.0000
    15 C15         43.0790   104.8750   -49.8970 C.ar         1 0VJ301   0.0000
    16 C16         42.2990   104.3610   -48.7650 C.ar         1 0VJ301   0.0000
    17 C17         40.8460   104.4640   -48.8510 C.ar         1 0VJ301   0.0000
    18 O01         44.6050   104.8610   -49.9800 O.3          1 0VJ301   0.0000
    19 O02         37.6040   106.1580   -48.2080 O.2          1 0VJ301   0.0000
    20 O03         36.3980   101.2640   -49.9750 O.2          1 0VJ301   0.0000
    21 O           38.3210   102.8680   -51.5970 O.3          1 0VJ301   0.0000
    22 C           45.3300   105.4720   -51.0320 C.3          1 0VJ301   0.0000
    23 H1          34.4283   104.2090   -45.0265 H            1 0VJ301   0.0000
    24 H2          33.8530   101.7930   -45.8547 H            1 0VJ301   0.0000
    25 H3          34.8206   100.9102   -47.8984 H            1 0VJ301   0.0000
    26 H4          35.9997   105.5717   -46.2477 H            1 0VJ301   0.0000
    27 H5          38.6341   106.3952   -50.3682 H            1 0VJ301   0.0000
    28 H6          38.8077   105.3035   -51.5701 H            1 0VJ301   0.0000
    29 H7          40.5480   106.0886   -51.9180 H            1 0VJ301   0.0000
    30 H8          42.9762   105.7665   -51.7882 H            1 0VJ301   0.0000
    31 H9          42.7454   103.9564   -47.9668 H            1 0VJ301   0.0000
    32 H10         40.2701   104.1049   -48.1166 H            1 0VJ301   0.0000
    33 H11         38.9486   103.5071   -52.0416 H            1 0VJ301   0.0000
    34 H12         46.3098   105.3393   -50.8825 H            1 0VJ301   0.0000
    35 H13         45.0666   105.0575   -51.9031 H            1 0VJ301   0.0000
    36 H14         45.1256   106.4506   -51.0532 H            1 0VJ301   0.0000
@<TRIPOS>BOND
     1    1    2      ar
     2    1    6      ar
     3    2    3      ar
     4    3    4      ar
     5    4    5      ar
     6    4    7       1
     7    5    6      ar
     8    5   10       1
     9    7    8       1
    10    7   20       2
    11    8    9       2
    12    8   21       1
    13    9   10       1
    14    9   11       1
    15   10   19       2
    16   11   12       1
    17   12   13      ar
    18   12   17      ar
    19   13   14      ar
    20   14   15      ar
    21   15   16      ar
    22   15   18       1
    23   16   17      ar
    24   18   22       1
    25    1   23       1
    26    2   24       1
    27    3   25       1
    28    6   26       1
    29   11   27       1
    30   11   28       1
    31   13   29       1
    32   14   30       1
    33   16   31       1
    34   17   32       1
    35   21   33       1
    36   22   34       1
    37   22   35       1
    38   22   36       1
@<TRIPOS>SUBSTRUCTURE
     1 0VJ301      1 GROUP             4 O     0VJ     0 **** 0VJ O 301
