@<TRIPOS>MOLECULE
4o1p_ANP_6_ligand
   44    46     1     0     0
SMALL
NO_CHARGES


@<TRIPOS>ATOM
     1 PG          -3.1820    46.6380    45.7850 P.3          1 ANP901   0.0000
     2 O1G         -4.5270    46.4670    45.1980 O.co2        1 ANP901   0.0000
     3 O2G         -2.3820    47.8210    45.3980 O.co2        1 ANP901  -1.0000
     4 O3G         -2.8850    45.9970    47.0690 O.co2        1 ANP901  -1.0000
     5 PB          -2.8420    44.9780    43.2710 P.3          1 ANP901   0.0000
     6 O1B         -3.3670    46.0880    42.4240 O.co2        1 ANP901   0.0000
     7 O2B         -3.7070    43.7950    43.4220 O.co2        1 ANP901  -1.0000
     8 N3B         -2.2780    45.4600    44.8270 N.3          1 ANP901   0.0000
     9 PA          -0.2110    45.3140    42.3590 P.3          1 ANP901   0.0000
    10 O1A          0.5250    44.6950    41.2790 O.co2        1 ANP901   0.0000
    11 O2A         -0.5720    46.7560    42.2620 O.co2        1 ANP901  -1.0000
    12 O3A         -1.5020    44.3900    42.6240 O.3          1 ANP901   0.0000
    13 O5'          0.5110    45.3000    43.8070 O.3          1 ANP901   0.0000
    14 C5'          1.4460    44.3920    44.1930 C.3          1 ANP901   0.0000
    15 C4'          2.4780    45.1580    45.0390 C.3          1 ANP901   0.0000
    16 O4'          3.6050    44.2450    44.8130 O.3          1 ANP901   0.0000
    17 C3'          2.9180    46.4990    44.5010 C.3          1 ANP901   0.0000
    18 O3'          2.4800    47.6100    45.3040 O.3          1 ANP901   0.0000
    19 C2'          4.4240    46.4020    44.6090 C.3          1 ANP901   0.0000
    20 O2'          4.8660    46.6390    45.9670 O.3          1 ANP901   0.0000
    21 C1'          4.7100    44.9730    44.2760 C.3          1 ANP901   0.0000
    22 N9           4.8970    44.6530    42.8220 N.pl3        1 ANP901   0.0000
    23 C8           4.0640    44.4580    41.8020 C.2          1 ANP901   0.0000
    24 N7           4.7850    44.1620    40.7080 N.2          1 ANP901   0.0000
    25 C5           6.0720    44.1530    41.0570 C.ar         1 ANP901   0.0000
    26 C6           7.1960    43.9160    40.3690 C.ar         1 ANP901   0.0000
    27 N6           7.1000    43.6180    39.0790 N.pl3        1 ANP901   0.0000
    28 N1           8.3940    43.9780    40.9530 N.ar         1 ANP901   0.0000
    29 C2           8.4740    44.2770    42.3090 C.ar         1 ANP901   0.0000
    30 N3           7.3000    44.5220    42.9960 N.ar         1 ANP901   0.0000
    31 C4           6.1300    44.4600    42.3590 C.ar         1 ANP901   0.0000
    32 H3B         -1.3628    45.8407    44.6945 H            1 ANP901   0.0000
    33 H5'1         1.8875    43.9891    43.3913 H            1 ANP901   0.0000
    34 H5'2         1.0210    43.6692    44.7380 H            1 ANP901   0.0000
    35 H4'          2.2167    45.2047    46.0031 H            1 ANP901   0.0000
    36 H3'          2.6345    46.6125    43.5488 H            1 ANP901   0.0000
    37 H6           2.3498    48.4119    44.7209 H            1 ANP901   0.0000
    38 H2'          4.8749    47.0219    43.9668 H            1 ANP901   0.0000
    39 H8           5.0404    47.6153    46.0952 H            1 ANP901   0.0000
    40 H1'          5.5361    44.6960    44.7667 H            1 ANP901   0.0000
    41 H10          3.0669    44.5214    41.8434 H            1 ANP901   0.0000
    42 H11          7.9258    43.4371    38.5448 H            1 ANP901   0.0000
    43 H12          6.2019    43.5744    38.6414 H            1 ANP901   0.0000
    44 H13          9.3581    44.3138    42.7748 H            1 ANP901   0.0000
@<TRIPOS>BOND
     1    1    2      ar
     2    1    3      ar
     3    1    4      ar
     4    1    8       1
     5    5    6      ar
     6    5    7      ar
     7    5    8       1
     8    5   12       1
     9    9   10      ar
    10    9   11      ar
    11    9   12       1
    12    9   13       1
    13   13   14       1
    14   14   15       1
    15   15   16       1
    16   15   17       1
    17   16   21       1
    18   17   18       1
    19   17   19       1
    20   19   20       1
    21   19   21       1
    22   21   22       1
    23   22   23       1
    24   22   31       1
    25   23   24       2
    26   24   25       1
    27   25   26      ar
    28   25   31      ar
    29   26   27       1
    30   26   28      ar
    31   28   29      ar
    32   29   30      ar
    33   30   31      ar
    34   29   44       1
    35   27   43       1
    36   27   42       1
    37    8   32       1
    38   23   41       1
    39   14   33       1
    40   14   34       1
    41   15   35       1
    42   17   36       1
    43   18   37       1
    44   19   38       1
    45   20   39       1
    46   21   40       1
@<TRIPOS>SUBSTRUCTURE
     1 ANP901      1 GROUP             4 B     ANP     0 **** ANP B 901
