@<TRIPOS>MOLECULE
3ai3_NDP_5_ligand
   73    77     1     0     0
SMALL
NO_CHARGES


@<TRIPOS>ATOM
     1 PA          42.2990   143.6260   105.9840 P.3          1 NDP270   0.0000
     2 O1A         43.0570   142.9880   104.8900 O.co2        1 NDP270   0.0000
     3 O2A         42.8870   144.7270   106.7560 O.co2        1 NDP270  -1.0000
     4 O5B         40.9980   144.2100   105.2750 O.3          1 NDP270   0.0000
     5 C5B         40.0890   144.9600   106.0270 C.3          1 NDP270   0.0000
     6 C4B         39.1260   145.6330   105.0520 C.3          1 NDP270   0.0000
     7 O4B         38.2260   146.3810   105.8520 O.3          1 NDP270   0.0000
     8 C3B         39.8210   146.6270   104.1270 C.3          1 NDP270   0.0000
     9 O3B         39.1290   146.7080   102.8910 O.3          1 NDP270   0.0000
    10 C2B         39.6910   147.9480   104.8650 C.3          1 NDP270   0.0000
    11 O2B         39.7850   149.0160   103.9430 O.3          1 NDP270   0.0000
    12 C1B         38.3260   147.7690   105.5310 C.3          1 NDP270   0.0000
    13 N9A         38.0900   148.5420   106.7520 N.pl3        1 NDP270   0.0000
    14 C8A         38.8000   148.5310   107.9270 C.2          1 NDP270   0.0000
    15 N7A         38.2190   149.4000   108.7670 N.2          1 NDP270   0.0000
    16 C5A         37.1560   149.9600   108.1610 C.ar         1 NDP270   0.0000
    17 C6A         36.2300   150.9140   108.5640 C.ar         1 NDP270   0.0000
    18 N6A         36.3010   151.4600   109.7750 N.pl3        1 NDP270   0.0000
    19 N1A         35.2460   151.2970   107.6710 N.ar         1 NDP270   0.0000
    20 C2A         35.1620   150.7540   106.4100 C.ar         1 NDP270   0.0000
    21 N3A         36.1080   149.8220   106.0160 N.ar         1 NDP270   0.0000
    22 C4A         37.0740   149.4390   106.8860 C.ar         1 NDP270   0.0000
    23 O3          41.6980   142.5490   107.0050 O.3          1 NDP270   0.0000
    24 PN          41.2360   141.0140   106.8620 P.3          1 NDP270   0.0000
    25 O1N         42.3180   140.2690   107.5410 O.co2        1 NDP270   0.0000
    26 O2N         40.7140   140.7360   105.5080 O.co2        1 NDP270  -1.0000
    27 O5D         40.0160   140.9860   107.8960 O.3          1 NDP270   0.0000
    28 C5D         38.6640   141.2100   107.5510 C.3          1 NDP270   0.0000
    29 C4D         37.8670   140.5680   108.6930 C.3          1 NDP270   0.0000
    30 O4D         38.2620   139.2170   108.8880 O.3          1 NDP270   0.0000
    31 C3D         38.0550   141.3080   110.0040 C.3          1 NDP270   0.0000
    32 O3D         36.7650   141.4530   110.5830 O.3          1 NDP270   0.0000
    33 C2D         38.8820   140.3360   110.8210 C.3          1 NDP270   0.0000
    34 O2D         38.5950   140.4620   112.1980 O.3          1 NDP270   0.0000
    35 C1D         38.3840   138.9910   110.2800 C.3          1 NDP270   0.0000
    36 N1N         39.3210   137.8930   110.5070 N.ar         1 NDP270   1.0000
    37 C2N         40.5430   137.8800   109.8480 C.ar         1 NDP270   0.0000
    38 C3N         41.3850   136.8110   110.0640 C.ar         1 NDP270   0.0000
    39 C7N         42.7340   136.8090   109.4300 C.2          1 NDP270   0.0000
    40 O7N         43.6120   135.8790   109.9170 O.2          1 NDP270   0.0000
    41 N7N         43.0610   137.6860   108.4840 N.am         1 NDP270   0.0000
    42 C4N         41.0290   135.7680   110.9490 C.ar         1 NDP270   0.0000
    43 C5N         39.7870   135.7940   111.5890 C.ar         1 NDP270   0.0000
    44 C6N         38.9360   136.8620   111.3340 C.ar         1 NDP270   0.0000
    45 P2B         40.1460   150.5210   104.3920 P.3          1 NDP270   0.0000
    46 O1X         41.3200   150.5970   105.3290 O.co2        1 NDP270   0.0000
    47 O2X         38.9520   151.0170   105.1740 O.co2        1 NDP270  -1.0000
    48 O3X         40.2770   151.3100   103.1200 O.co2        1 NDP270  -1.0000
    49 H5B1        40.5762   145.6533   106.5580 H            1 NDP270   0.0000
    50 H5B2        39.5828   144.3603   106.6467 H            1 NDP270   0.0000
    51 H4B         38.6318   144.9463   104.5189 H            1 NDP270   0.0000
    52 H3B         40.7808   146.3826   103.9889 H            1 NDP270   0.0000
    53 H5          39.5918   147.3615   102.2921 H            1 NDP270   0.0000
    54 H2B         40.4062   148.0274   105.5594 H            1 NDP270   0.0000
    55 H1B         37.6139   147.9956   104.8665 H            1 NDP270   0.0000
    56 H8A         39.6072   147.9738   108.1219 H            1 NDP270   0.0000
    57 H6A1        35.6290   152.1458   110.0544 H            1 NDP270   0.0000
    58 H6A2        37.0264   151.1846   110.4059 H            1 NDP270   0.0000
    59 H2A         34.4292   151.0279   105.7872 H            1 NDP270   0.0000
    60 H5D1        38.4448   140.7743   106.6780 H            1 NDP270   0.0000
    61 H5D2        38.4715   142.1895   107.4923 H            1 NDP270   0.0000
    62 H4D         36.8963   140.5851   108.4534 H            1 NDP270   0.0000
    63 H3D         38.5158   142.1868   109.8803 H            1 NDP270   0.0000
    64 H16         36.0784   141.5072   109.8580 H            1 NDP270   0.0000
    65 H2D         39.8588   140.4563   110.6439 H            1 NDP270   0.0000
    66 H18         39.1516   139.8120   112.7153 H            1 NDP270   0.0000
    67 H1D         37.4915   138.7700   110.6733 H            1 NDP270   0.0000
    68 H2N         40.8045   138.6250   109.2343 H            1 NDP270   0.0000
    69 H7N1        43.9731   137.6631   108.0747 H            1 NDP270   0.0000
    70 H7N2        42.3946   138.3679   108.1824 H            1 NDP270   0.0000
    71 H4N         41.6639   135.0138   111.1166 H            1 NDP270   0.0000
    72 H5N         39.5176   135.0621   112.2149 H            1 NDP270   0.0000
    73 H6N         38.0303   136.8822   111.7575 H            1 NDP270   0.0000
@<TRIPOS>BOND
     1    1    2      ar
     2    1    3      ar
     3    1    4       1
     4    1   23       1
     5    4    5       1
     6    5    6       1
     7    6    7       1
     8    6    8       1
     9    7   12       1
    10    8    9       1
    11    8   10       1
    12   10   11       1
    13   10   12       1
    14   11   45       1
    15   12   13       1
    16   13   14       1
    17   13   22       1
    18   14   15       2
    19   15   16       1
    20   16   17      ar
    21   16   22      ar
    22   17   18       1
    23   17   19      ar
    24   19   20      ar
    25   20   21      ar
    26   21   22      ar
    27   23   24       1
    28   24   25      ar
    29   24   26      ar
    30   24   27       1
    31   27   28       1
    32   28   29       1
    33   29   30       1
    34   29   31       1
    35   30   35       1
    36   31   32       1
    37   31   33       1
    38   33   34       1
    39   33   35       1
    40   35   36       1
    41   36   37      ar
    42   36   44      ar
    43   37   38      ar
    44   38   39       1
    45   38   42      ar
    46   39   40       2
    47   39   41      am
    48   42   43      ar
    49   43   44      ar
    50   45   46      ar
    51   45   47      ar
    52   45   48      ar
    53   43   72       1
    54    5   49       1
    55    5   50       1
    56    6   51       1
    57    8   52       1
    58    9   53       1
    59   10   54       1
    60   12   55       1
    61   14   56       1
    62   18   57       1
    63   18   58       1
    64   20   59       1
    65   44   73       1
    66   28   60       1
    67   28   61       1
    68   29   62       1
    69   31   63       1
    70   32   64       1
    71   33   65       1
    72   34   66       1
    73   35   67       1
    74   37   68       1
    75   41   69       1
    76   41   70       1
    77   42   71       1
@<TRIPOS>SUBSTRUCTURE
     1 NDP270      1 GROUP             4 A     NDP     0 **** NDP A 270
