@<TRIPOS>MOLECULE
1i06_TZL_1_ligand
   22    22     1     0     0
SMALL
NO_CHARGES


@<TRIPOS>ATOM
     1 S1          23.9600    18.2690    28.0280 S.3          1 TZL405   0.0000
     2 C2          23.4820    17.2780    29.3680 C.2          1 TZL405   0.0000
     3 N3          24.4630    16.4840    29.7900 N.2          1 TZL405   0.0000
     4 C4          25.6760    16.5140    29.0040 C.3          1 TZL405   0.0000
     5 C5          25.5650    17.6050    27.9130 C.3          1 TZL405   0.0000
     6 C6          22.0060    17.2890    29.7950 C.3          1 TZL405   0.0000
     7 C7          21.7920    18.1180    31.0640 C.3          1 TZL405   0.0000
     8 C8          20.4710    18.9180    30.9770 C.3          1 TZL405   0.0000
     9 C9          21.4320    15.8150    29.8800 C.3          1 TZL405   0.0000
    10 H1          25.8130    15.6234    28.5704 H            1 TZL405   0.0000
    11 H2          26.4529    16.7178    29.5997 H            1 TZL405   0.0000
    12 H3          26.2457    18.3203    28.0709 H            1 TZL405   0.0000
    13 H4          25.7074    17.2031    27.0084 H            1 TZL405   0.0000
    14 H5          21.5014    17.7498    29.0649 H            1 TZL405   0.0000
    15 H6          22.5552    18.7550    31.1727 H            1 TZL405   0.0000
    16 H7          21.7537    17.5057    31.8537 H            1 TZL405   0.0000
    17 H8          20.3491    19.4522    31.8135 H            1 TZL405   0.0000
    18 H9          20.5056    19.5341    30.1901 H            1 TZL405   0.0000
    19 H10         19.7042    18.2849    30.8711 H            1 TZL405   0.0000
    20 H11         20.4722    15.8466    30.1590 H            1 TZL405   0.0000
    21 H12         21.5044    15.3769    28.9840 H            1 TZL405   0.0000
    22 H13         21.9570    15.2910    30.5507 H            1 TZL405   0.0000
@<TRIPOS>BOND
     1    1    2       1
     2    1    5       1
     3    2    3       2
     4    2    6       1
     5    3    4       1
     6    4    5       1
     7    6    7       1
     8    6    9       1
     9    7    8       1
    10    4   10       1
    11    4   11       1
    12    5   12       1
    13    5   13       1
    14    6   14       1
    15    7   15       1
    16    7   16       1
    17    8   17       1
    18    8   18       1
    19    8   19       1
    20    9   20       1
    21    9   21       1
    22    9   22       1
@<TRIPOS>SUBSTRUCTURE
     1 TZL405      1 GROUP             4 A     TZL     0 **** TZL A 405
