@<TRIPOS>MOLECULE
4eke_D1I_1_ligand
   52    54     1     0     0
SMALL
NO_CHARGES


@<TRIPOS>ATOM
     1 N1          34.0200    23.6700    28.7350 N.am         1 D1I901   0.0000
     2 C2          33.2910    24.1980    29.7450 C.2          1 D1I901   0.0000
     3 O2          32.0630    24.1480    29.7990 O.2          1 D1I901   0.0000
     4 N3          33.8990    24.9500    30.7170 N.am         1 D1I901   0.0000
     5 C4          35.3310    24.8250    30.7920 C.3          1 D1I901   0.0000
     6 C5          36.0440    24.4570    29.6610 C.2          1 D1I901   0.0000
     7 O5          36.0380    25.7220    31.5790 O.3          1 D1I901   0.0000
     8 C6          35.4380    23.7520    28.7040 C.2          1 D1I901   0.0000
     9 C7          37.3090    24.7000    30.0110 C.2          1 D1I901   0.0000
    10 C8          37.3120    25.4490    31.1540 C.2          1 D1I901   0.0000
    11 C9          38.6270    25.9820    31.8180 C.3          1 D1I901   0.0000
    12 C1'         33.2750    22.8820    27.7560 C.3          1 D1I901   0.0000
    13 C10         38.5290    27.5060    32.2400 C.3          1 D1I901   0.0000
    14 C11         38.6750    27.7410    33.7750 C.3          1 D1I901   0.0000
    15 C12         39.6980    26.7960    34.4580 C.3          1 D1I901   0.0000
    16 C13         40.0800    27.3380    35.8490 C.3          1 D1I901   0.0000
    17 C2'         33.6900    23.0390    26.3120 C.3          1 D1I901   0.0000
    18 O2'         33.9220    24.4180    25.9970 O.3          1 D1I901   0.0000
    19 C3'         32.5590    22.4200    25.4650 C.3          1 D1I901   0.0000
    20 O3'         32.9110    22.3730    24.1090 O.3          1 D1I901   0.0000
    21 C4'         32.3220    20.9940    25.9170 C.3          1 D1I901   0.0000
    22 O4'         31.1980    20.4600    25.2050 O.3          1 D1I901   0.0000
    23 C5'         32.1250    20.8660    27.4440 C.3          1 D1I901   0.0000
    24 O5'         33.2190    21.4640    28.1430 O.3          1 D1I901   0.0000
    25 C6'         32.1580    19.4050    27.8750 C.3          1 D1I901   0.0000
    26 O6'         33.2000    18.6870    27.2470 O.3          1 D1I901   0.0000
    27 H1          33.3823    25.5453    31.3324 H            1 D1I901   0.0000
    28 H2          35.4145    23.9932    31.3408 H            1 D1I901   0.0000
    29 H3          35.9654    23.2956    27.9873 H            1 D1I901   0.0000
    30 H4          38.1204    24.3858    29.5182 H            1 D1I901   0.0000
    31 H5          39.3783    25.8788    31.1662 H            1 D1I901   0.0000
    32 H6          38.8165    25.4362    32.6342 H            1 D1I901   0.0000
    33 H1'         32.3325    23.2126    27.8038 H            1 D1I901   0.0000
    34 H8          37.6389    27.8575    31.9499 H            1 D1I901   0.0000
    35 H9          39.2550    28.0105    31.7727 H            1 D1I901   0.0000
    36 H10         37.7817    27.6002    34.2020 H            1 D1I901   0.0000
    37 H11         38.9701    28.6850    33.9229 H            1 D1I901   0.0000
    38 H12         40.5194    26.7338    33.8911 H            1 D1I901   0.0000
    39 H13         39.2924    25.8874    34.5579 H            1 D1I901   0.0000
    40 H14         40.7392    26.7203    36.2779 H            1 D1I901   0.0000
    41 H15         40.4879    28.2459    35.7525 H            1 D1I901   0.0000
    42 H16         39.2608    27.3995    36.4193 H            1 D1I901   0.0000
    43 H2'         34.5326    22.5232    26.1572 H            1 D1I901   0.0000
    44 H18         33.3025    24.7015    25.2650 H            1 D1I901   0.0000
    45 H3'         31.7211    22.9540    25.5782 H            1 D1I901   0.0000
    46 H20         32.6210    23.2181    23.6598 H            1 D1I901   0.0000
    47 H4'         33.1267    20.4559    25.6662 H            1 D1I901   0.0000
    48 H22         30.3597    20.6466    25.7173 H            1 D1I901   0.0000
    49 H5'         31.2626    21.2904    27.7200 H            1 D1I901   0.0000
    50 H6'1        31.2849    18.9793    27.6375 H            1 D1I901   0.0000
    51 H6'2        32.2902    19.3643    28.8654 H            1 D1I901   0.0000
    52 H6'         34.0263    18.7398    27.8078 H            1 D1I901   0.0000
@<TRIPOS>BOND
     1    1    2      am
     2    1    8       1
     3    1   12       1
     4    2    3       2
     5    2    4      am
     6    4    5       1
     7    5    6       1
     8    5    7       1
     9    6    8       2
    10    6    9       1
    11    7   10       1
    12    9   10       2
    13   10   11       1
    14   11   13       1
    15   12   17       1
    16   12   24       1
    17   13   14       1
    18   14   15       1
    19   15   16       1
    20   17   18       1
    21   17   19       1
    22   19   20       1
    23   19   21       1
    24   21   22       1
    25   21   23       1
    26   23   24       1
    27   23   25       1
    28   25   26       1
    29    4   27       1
    30    5   28       1
    31    8   29       1
    32    9   30       1
    33   11   31       1
    34   11   32       1
    35   12   33       1
    36   13   34       1
    37   13   35       1
    38   14   36       1
    39   14   37       1
    40   15   38       1
    41   15   39       1
    42   16   40       1
    43   16   41       1
    44   16   42       1
    45   17   43       1
    46   18   44       1
    47   19   45       1
    48   20   46       1
    49   21   47       1
    50   22   48       1
    51   23   49       1
    52   25   50       1
    53   25   51       1
    54   26   52       1
@<TRIPOS>SUBSTRUCTURE
     1 D1I901      1 GROUP             4 A     D1I     0 **** D1I A 901
