@<TRIPOS>MOLECULE
3p70_ILE_PHE_GLU_PRO_PRO_6_ligand
   85    87     5     0     0
SMALL
NO_CHARGES


@<TRIPOS>ATOM
     1 N           33.1740    38.4820    51.2290 N.4          1 ILE667   1.0000
     2 CA          32.7140    37.1670    51.8110 C.3          1 ILE667   0.0000
     3 C           31.7900    37.2910    53.0780 C.2          1 ILE667   0.0000
     4 O           31.9320    38.2030    53.8860 O.2          1 ILE667   0.0000
     5 CB          33.9380    36.2290    52.0390 C.3          1 ILE667   0.0000
     6 CG1         34.3330    35.5590    50.7040 C.3          1 ILE667   0.0000
     7 CG2         33.6800    35.2160    53.1430 C.3          1 ILE667   0.0000
     8 CD1         35.8800    35.5890    50.3630 C.3          1 ILE667   0.0000
     9 H1          32.3837    39.0778    51.0857 H            1 ILE667   0.0000
    10 H2          33.8123    38.9212    51.8612 H            1 ILE667   0.0000
    11 HA          32.1579    36.7302    51.1039 H            1 ILE667   0.0000
    12 HB          34.7059    36.8006    52.3280 H            1 ILE667   0.0000
    13 HG11        33.8451    36.0271    49.9672 H            1 ILE667   0.0000
    14 HG12        34.0432    34.6026    50.7407 H            1 ILE667   0.0000
    15 HG21        34.4861    34.6355    53.2577 H            1 ILE667   0.0000
    16 HG22        33.4910    35.6969    53.9991 H            1 ILE667   0.0000
    17 HG23        32.8932    34.6493    52.8982 H            1 ILE667   0.0000
    18 HD11        36.0369    35.1346    49.4861 H            1 ILE667   0.0000
    19 HD12        36.1907    36.5379    50.3071 H            1 ILE667   0.0000
    20 HD13        36.3888    35.1134    51.0806 H            1 ILE667   0.0000
    21 N           30.8570    36.3550    53.2250 N.am         2 PHE668   0.0000
    22 CA          29.6830    36.5350    54.0790 C.3          2 PHE668   0.0000
    23 C           29.7000    35.7470    55.4050 C.2          2 PHE668   0.0000
    24 O           29.6290    34.5400    55.3840 O.2          2 PHE668   0.0000
    25 CB          28.4130    36.1840    53.2680 C.3          2 PHE668   0.0000
    26 CG          27.9910    37.2510    52.2630 C.ar         2 PHE668   0.0000
    27 CD1         27.1620    38.3030    52.6460 C.ar         2 PHE668   0.0000
    28 CD2         28.3850    37.1770    50.9330 C.ar         2 PHE668   0.0000
    29 CE1         26.7560    39.2790    51.7420 C.ar         2 PHE668   0.0000
    30 CE2         27.9890    38.1620    50.0130 C.ar         2 PHE668   0.0000
    31 CZ          27.1600    39.2180    50.4230 C.ar         2 PHE668   0.0000
    32 H13         30.9623    35.4919    52.7311 H            2 PHE668   0.0000
    33 H14         29.6294    37.5063    54.3106 H            2 PHE668   0.0000
    34 HB1         27.6599    36.0450    53.9111 H            2 PHE668   0.0000
    35 HB2         28.5858    35.3351    52.7686 H            2 PHE668   0.0000
    36 HD1         26.8510    38.3579    53.5948 H            2 PHE668   0.0000
    37 HD2         28.9561    36.4151    50.6275 H            2 PHE668   0.0000
    38 HE1         26.1689    40.0282    52.0486 H            2 PHE668   0.0000
    39 HE2         28.2985    38.1108    49.0635 H            2 PHE668   0.0000
    40 HZ          26.8664    39.9157    49.7696 H            2 PHE668   0.0000
    41 N           29.7780    36.4300    56.5520 N.am         3 GLU669   0.0000
    42 CA          29.6670    35.7550    57.8720 C.3          3 GLU669   0.0000
    43 C           28.4810    34.7520    57.9650 C.2          3 GLU669   0.0000
    44 O           27.3490    35.0620    57.5610 O.2          3 GLU669   0.0000
    45 CB          29.6140    36.7840    59.0100 C.3          3 GLU669   0.0000
    46 CG          29.5640    36.2270    60.4510 C.3          3 GLU669   0.0000
    47 CD          29.4340    37.3510    61.4870 C.2          3 GLU669   0.0000
    48 OE1         28.4480    37.3810    62.2500 O.co2        3 GLU669   0.0000
    49 OE2         30.3020    38.2470    61.5230 O.co2        3 GLU669  -1.0000
    50 H22         29.9145    37.4202    56.5211 H            3 GLU669   0.0000
    51 H23         30.5057    35.2253    57.9985 H            3 GLU669   0.0000
    52 H24         28.7969    37.3442    58.8736 H            3 GLU669   0.0000
    53 H25         30.4287    37.3592    58.9360 H            3 GLU669   0.0000
    54 HG1         30.4045    35.7158    60.6306 H            3 GLU669   0.0000
    55 HG2         28.7774    35.6154    60.5354 H            3 GLU669   0.0000
    56 N           28.7430    33.5540    58.5010 N.am         4 PRO670   0.0000
    57 CA          27.7480    32.4740    58.5390 C.3          4 PRO670   0.0000
    58 C           26.8420    32.4410    59.7910 C.2          4 PRO670   0.0000
    59 O           27.2420    32.9110    60.8700 O.2          4 PRO670   0.0000
    60 CB          28.6190    31.2280    58.4780 C.3          4 PRO670   0.0000
    61 CG          29.8140    31.6440    59.3020 C.3          4 PRO670   0.0000
    62 CD          30.0710    33.0810    58.9270 C.3          4 PRO670   0.0000
    63 H28         27.1778    32.5200    57.7188 H            4 PRO670   0.0000
    64 H29         28.1551    30.4396    58.8820 H            4 PRO670   0.0000
    65 H30         28.8824    31.0138    57.5374 H            4 PRO670   0.0000
    66 H31         29.6109    31.5672    60.2781 H            4 PRO670   0.0000
    67 H32         30.6072    31.0766    59.0809 H            4 PRO670   0.0000
    68 H33         30.4039    33.6034    59.7120 H            4 PRO670   0.0000
    69 H34         30.7322    33.1448    58.1795 H            4 PRO670   0.0000
    70 N           25.6260    31.8670    59.6440 N.am         5 PRO671   0.0000
    71 CA          24.6480    31.8450    60.7660 C.3          5 PRO671   0.0000
    72 C           25.0660    30.9110    61.9400 C.2          5 PRO671   0.0000
    73 O           25.4080    31.3770    63.0400 O.2          5 PRO671   0.0000
    74 CB          23.3220    31.3790    60.0980 C.3          5 PRO671   0.0000
    75 CG          23.6840    30.8820    58.7110 C.3          5 PRO671   0.0000
    76 CD          25.1720    31.0660    58.4830 C.3          5 PRO671   0.0000
    77 H35         24.5293    32.7748    61.1144 H            5 PRO671   0.0000
    78 H36         25.0591    29.9200    61.8064 H            5 PRO671   0.0000
    79 H37         22.9081    30.6413    60.6313 H            5 PRO671   0.0000
    80 H38         22.6811    32.1439    60.0337 H            5 PRO671   0.0000
    81 H39         23.4518    29.9125    58.6328 H            5 PRO671   0.0000
    82 H40         23.1745    31.4031    58.0263 H            5 PRO671   0.0000
    83 H41         25.6384    30.1817    58.4590 H            5 PRO671   0.0000
    84 H42         25.3411    31.5554    57.6275 H            5 PRO671   0.0000
    85 H43         33.6307    38.3180    50.3546 H            5 PRO671   0.0000
@<TRIPOS>BOND
     1    1    2       1
     2    2    5       1
     3    2    3       1
     4    5    7       1
     5    5    6       1
     6    6    8       1
     7    3    4       2
     8    1    9       1
     9    1   10       1
    10    2   11       1
    11    3   21      am
    12    5   12       1
    13    6   13       1
    14    6   14       1
    15    7   15       1
    16    7   16       1
    17    7   17       1
    18    8   18       1
    19    8   19       1
    20    8   20       1
    21   21   22       1
    22   22   25       1
    23   22   23       1
    24   25   26       1
    25   26   27      ar
    26   26   28      ar
    27   27   29      ar
    28   29   31      ar
    29   31   30      ar
    30   30   28      ar
    31   23   24       2
    32   31   40       1
    33   21   32       1
    34   22   33       1
    35   23   41      am
    36   25   34       1
    37   25   35       1
    38   27   36       1
    39   28   37       1
    40   29   38       1
    41   30   39       1
    42   41   42       1
    43   42   45       1
    44   42   43       1
    45   45   46       1
    46   46   47       1
    47   47   48      ar
    48   47   49      ar
    49   43   44       2
    50   46   55       1
    51   41   50       1
    52   42   51       1
    53   43   56      am
    54   45   52       1
    55   45   53       1
    56   46   54       1
    57   56   62       1
    58   56   57       1
    59   62   61       1
    60   61   60       1
    61   60   57       1
    62   57   58       1
    63   58   59       2
    64   62   69       1
    65   57   63       1
    66   58   70      am
    67   60   64       1
    68   60   65       1
    69   61   66       1
    70   61   67       1
    71   62   68       1
    72   70   76       1
    73   70   71       1
    74   76   75       1
    75   75   74       1
    76   74   71       1
    77   71   72       1
    78   72   73       2
    79   76   84       1
    80   71   77       1
    81   72   78       1
    82   74   79       1
    83   74   80       1
    84   75   81       1
    85   75   82       1
    86   76   83       1
    87    1   85       1
@<TRIPOS>SUBSTRUCTURE
     1 ILE667      1 RESIDUE           4 N     ILE     0 **** ILE N 667
     2 PHE668     21 RESIDUE           4 N     PHE     0 **** PHE N 668
     3 GLU669     41 RESIDUE           4 N     GLU     0 **** GLU N 669
     4 PRO670     56 RESIDUE           4 N     PRO     0 **** PRO N 670
     5 PRO671     70 RESIDUE           4 N     PRO     0 **** PRO N 671
