@<TRIPOS>MOLECULE
4aqk_ADP_1_ligand
   39    41     1     0     0
SMALL
NO_CHARGES


@<TRIPOS>ATOM
     1 O1A        -17.8800    -6.5190   -19.1090 O.co2        1 ADP600   0.0000
     2 PA         -18.7050    -7.7770   -19.0000 P.3          1 ADP600   0.0000
     3 O2A        -18.0910    -9.0260   -18.4090 O.co2        1 ADP600  -1.0000
     4 O3A        -20.0780    -7.4100   -18.2200 O.3          1 ADP600   0.0000
     5 PB         -20.2170    -7.3090   -16.6070 P.3          1 ADP600   0.0000
     6 O1B        -21.7000    -7.2620   -16.3430 O.co2        1 ADP600   0.0000
     7 O2B        -19.5710    -8.5750   -16.0860 O.co2        1 ADP600  -1.0000
     8 O3B        -19.4950    -6.0340   -16.2470 O.co2        1 ADP600  -1.0000
     9 O5'        -19.2360    -8.1660   -20.4710 O.3          1 ADP600   0.0000
    10 C5'        -20.2720    -9.1320   -20.6470 C.3          1 ADP600   0.0000
    11 C4'        -19.9760   -10.0820   -21.8050 C.3          1 ADP600   0.0000
    12 C3'        -18.6660   -10.8180   -21.6000 C.3          1 ADP600   0.0000
    13 O3'        -18.9140   -12.1360   -21.1060 O.3          1 ADP600   0.0000
    14 C2'        -17.9820   -10.8170   -22.9580 C.3          1 ADP600   0.0000
    15 O2'        -18.1100   -12.0690   -23.6310 O.3          1 ADP600   0.0000
    16 C1'        -18.7010    -9.7690   -23.7780 C.3          1 ADP600   0.0000
    17 O4'        -19.8740    -9.3780   -23.0490 O.3          1 ADP600   0.0000
    18 N9         -17.8140    -8.5980   -24.0120 N.pl3        1 ADP600   0.0000
    19 C4         -17.0790    -8.3790   -25.1080 C.ar         1 ADP600   0.0000
    20 C5         -16.3830    -7.0930   -24.8920 C.ar         1 ADP600   0.0000
    21 N7         -16.7600    -6.6510   -23.6770 N.2          1 ADP600   0.0000
    22 C8         -17.6240    -7.5660   -23.1670 C.2          1 ADP600   0.0000
    23 N3         -16.8640    -9.0460   -26.2740 N.ar         1 ADP600   0.0000
    24 C2         -16.0390    -8.5500   -27.2170 C.ar         1 ADP600   0.0000
    25 N1         -15.3730    -7.3830   -27.0830 N.ar         1 ADP600   0.0000
    26 C6         -15.4860    -6.6140   -25.9770 C.ar         1 ADP600   0.0000
    27 N6         -14.8030    -5.4470   -25.8710 N.pl3        1 ADP600   0.0000
    28 H5'1       -21.1308    -8.6545   -20.8324 H            1 ADP600   0.0000
    29 H5'2       -20.3622    -9.6658   -19.8062 H            1 ADP600   0.0000
    30 H4'        -20.7161   -10.7512   -21.8717 H            1 ADP600   0.0000
    31 H3'        -18.1023   -10.3172   -20.9432 H            1 ADP600   0.0000
    32 H5         -18.1902   -12.7510   -21.4190 H            1 ADP600   0.0000
    33 H2'        -17.0167   -10.5754   -22.8584 H            1 ADP600   0.0000
    34 H7         -17.6466   -12.0207   -24.5158 H            1 ADP600   0.0000
    35 H1'        -18.9714   -10.1622   -24.6568 H            1 ADP600   0.0000
    36 H9         -18.0653    -7.4839   -22.2734 H            1 ADP600   0.0000
    37 H10        -15.9135    -9.0734   -28.0598 H            1 ADP600   0.0000
    38 H11        -14.2061    -5.1476   -26.6154 H            1 ADP600   0.0000
    39 H12        -14.8963    -4.8860   -25.0485 H            1 ADP600   0.0000
@<TRIPOS>BOND
     1    1    2      ar
     2    2    3      ar
     3    2    4       1
     4    2    9       1
     5    4    5       1
     6    5    6      ar
     7    5    7      ar
     8    5    8      ar
     9    9   10       1
    10   10   11       1
    11   11   12       1
    12   11   17       1
    13   12   13       1
    14   12   14       1
    15   14   15       1
    16   14   16       1
    17   16   17       1
    18   16   18       1
    19   18   19       1
    20   18   22       1
    21   19   20      ar
    22   19   23      ar
    23   20   21       1
    24   20   26      ar
    25   21   22       2
    26   23   24      ar
    27   24   25      ar
    28   25   26      ar
    29   26   27       1
    30   27   39       1
    31   27   38       1
    32   24   37       1
    33   10   28       1
    34   10   29       1
    35   11   30       1
    36   12   31       1
    37   13   32       1
    38   14   33       1
    39   15   34       1
    40   16   35       1
    41   22   36       1
@<TRIPOS>SUBSTRUCTURE
     1 ADP600      1 GROUP             4 A     ADP     0 **** ADP A 600
