@<TRIPOS>MOLECULE
4i1r_LZU_1_ligand
   52    55     1     0     0
SMALL
NO_CHARGES


@<TRIPOS>ATOM
     1 CAA        -28.9170   -13.1650    23.9130 C.3          1 LZU801   0.0000
     2 CAB        -29.9090   -19.8230    21.3180 C.3          1 LZU801   0.0000
     3 CAC        -27.5770   -12.1240    17.7870 C.ar         1 LZU801   0.0000
     4 CAD        -26.1820   -11.9450    17.6790 C.ar         1 LZU801   0.0000
     5 CAE        -32.6390   -13.2430    21.8850 C.3          1 LZU801   0.0000
     6 CAF        -32.2090   -12.3470    22.9850 C.3          1 LZU801   0.0000
     7 CAG        -31.5610   -13.8190    21.0570 C.3          1 LZU801   0.0000
     8 CAH        -28.0530   -13.3290    18.3290 C.ar         1 LZU801   0.0000
     9 CAI        -25.2980   -12.9410    18.0650 C.ar         1 LZU801   0.0000
    10 CAJ        -25.7950   -19.1670    20.5200 C.ar         1 LZU801   0.0000
    11 CAK        -25.0050   -18.0850    20.1230 C.ar         1 LZU801   0.0000
    12 CAL        -29.2510   -14.6600    20.9990 C.3          1 LZU801   0.0000
    13 CAM        -31.0580   -12.9110    23.7670 C.3          1 LZU801   0.0000
    14 CAN        -29.2080   -15.4370    19.6170 C.3          1 LZU801   0.0000
    15 CAO        -27.8300   -17.8570    20.1300 C.ar         1 LZU801   0.0000
    16 CAP        -30.4000   -14.3770    21.8570 C.3          1 LZU801   0.0000
    17 CAQ        -27.2120   -19.0750    20.5060 C.ar         1 LZU801   0.0000
    18 CAR        -27.1440   -14.3480    18.7690 C.ar         1 LZU801   0.0000
    19 CAS        -27.0370   -16.7180    19.7330 C.ar         1 LZU801   0.0000
    20 CAT        -25.7920   -14.1850    18.6650 C.ar         1 LZU801   0.0000
    21 CAU        -25.6770   -16.8210    19.7510 C.ar         1 LZU801   0.0000
    22 NAV        -29.9790   -13.4090    22.9020 N.4          1 LZU801   1.0000
    23 NAW        -27.7510   -15.5700    19.2230 N.pl3        1 LZU801   0.0000
    24 SAX        -28.2720   -20.4300    20.9920 S.3          1 LZU801   0.0000
    25 SAY        -24.7670   -15.3730    19.4760 S.3          1 LZU801   0.0000
    26 HAA1       -28.0314   -13.4411    23.5395 H            1 LZU801   0.0000
    27 HAA2       -28.8930   -12.1921    24.1431 H            1 LZU801   0.0000
    28 HAA3       -29.1121   -13.6976    24.7366 H            1 LZU801   0.0000
    29 HAB1       -30.4987   -20.5837    21.5894 H            1 LZU801   0.0000
    30 HAB2       -29.8738   -19.1488    22.0558 H            1 LZU801   0.0000
    31 HAB3       -30.2763   -19.3947    20.4924 H            1 LZU801   0.0000
    32 HAC        -28.2105   -11.4114    17.4855 H            1 LZU801   0.0000
    33 HAD        -25.8241   -11.0841    17.3175 H            1 LZU801   0.0000
    34 HAE1       -33.2407   -12.7193    21.2819 H            1 LZU801   0.0000
    35 HAE2       -33.1507   -14.0005    22.2904 H            1 LZU801   0.0000
    36 HAF1       -32.9807   -12.2072    23.6054 H            1 LZU801   0.0000
    37 HAF2       -31.9321   -11.4691    22.5943 H            1 LZU801   0.0000
    38 HAG1       -31.2113   -13.1026    20.4532 H            1 LZU801   0.0000
    39 HAG2       -31.9482   -14.5589    20.5069 H            1 LZU801   0.0000
    40 HAH        -29.0385   -13.4787    18.4093 H            1 LZU801   0.0000
    41 HAI        -24.3154   -12.8101    17.9332 H            1 LZU801   0.0000
    42 HAJ        -25.3576   -20.0157    20.8173 H            1 LZU801   0.0000
    43 HAK        -24.0086   -18.1634    20.0911 H            1 LZU801   0.0000
    44 HAL1       -28.8679   -13.7601    20.7908 H            1 LZU801   0.0000
    45 HAL2       -28.6185   -15.1635    21.5876 H            1 LZU801   0.0000
    46 HAM1       -31.3925   -13.6670    24.3296 H            1 LZU801   0.0000
    47 HAM2       -30.6897   -12.1933    24.3579 H            1 LZU801   0.0000
    48 HAN1       -29.7061   -14.9225    18.9190 H            1 LZU801   0.0000
    49 HAN2       -29.6191   -16.3427    19.7202 H            1 LZU801   0.0000
    50 HAO        -28.8274   -17.7854    20.1397 H            1 LZU801   0.0000
    51 HAP        -30.6901   -15.2254    22.2997 H            1 LZU801   0.0000
    52 HAV        -29.8453   -12.6005    22.3289 H            1 LZU801   0.0000
@<TRIPOS>BOND
     1    1   22       1
     2    2   24       1
     3    3    4      ar
     4    3    8      ar
     5    4    9      ar
     6    5    6       1
     7    5    7       1
     8    6   13       1
     9    7   16       1
    10    8   18      ar
    11    9   20      ar
    12   10   11      ar
    13   10   17      ar
    14   11   21      ar
    15   12   14       1
    16   12   16       1
    17   13   22       1
    18   14   23       1
    19   15   17      ar
    20   15   19      ar
    21   16   22       1
    22   17   24       1
    23   18   20      ar
    24   18   23       1
    25   19   21      ar
    26   19   23       1
    27   20   25       1
    28   21   25       1
    29    1   26       1
    30    1   27       1
    31    1   28       1
    32    2   29       1
    33    2   30       1
    34    2   31       1
    35    3   32       1
    36    4   33       1
    37    5   34       1
    38    5   35       1
    39    6   36       1
    40    6   37       1
    41    7   38       1
    42    7   39       1
    43    8   40       1
    44    9   41       1
    45   10   42       1
    46   11   43       1
    47   12   44       1
    48   12   45       1
    49   13   46       1
    50   13   47       1
    51   14   48       1
    52   14   49       1
    53   15   50       1
    54   16   51       1
    55   22   52       1
@<TRIPOS>SUBSTRUCTURE
     1 LZU801      1 GROUP             4 A     LZU     0 **** LZU A 801
