@<TRIPOS>MOLECULE
3uaw_ADN_1_ligand
   33    35     1     0     0
SMALL
NO_CHARGES


@<TRIPOS>ATOM
     1 O5'         40.2800    17.6620    41.1050 O.3          1 ADN236   0.0000
     2 C5'         41.1440    17.9910    42.1510 C.3          1 ADN236   0.0000
     3 C4'         41.2020    16.8930    43.1680 C.3          1 ADN236   0.0000
     4 O4'         41.6040    15.6650    42.5270 O.3          1 ADN236   0.0000
     5 C3'         42.2090    17.1410    44.2480 C.3          1 ADN236   0.0000
     6 O3'         41.7920    16.5350    45.4600 O.3          1 ADN236   0.0000
     7 C2'         43.4910    16.4880    43.7120 C.3          1 ADN236   0.0000
     8 O2'         44.2340    15.8270    44.6900 O.3          1 ADN236   0.0000
     9 C1'         43.0050    15.5010    42.6330 C.3          1 ADN236   0.0000
    10 N9          43.5670    15.7360    41.2980 N.pl3        1 ADN236   0.0000
    11 C8          43.3750    14.8630    40.2660 C.2          1 ADN236   0.0000
    12 N7          43.9190    15.3460    39.1290 N.2          1 ADN236   1.0000
    13 C5          44.4280    16.5420    39.4350 C.ar         1 ADN236   0.0000
    14 C6          45.1030    17.5480    38.6750 C.ar         1 ADN236   0.0000
    15 N6          45.3420    17.3670    37.3730 N.pl3        1 ADN236   0.0000
    16 N1          45.5050    18.6430    39.2890 N.ar         1 ADN236   0.0000
    17 C2          45.2820    18.8090    40.5880 C.ar         1 ADN236   0.0000
    18 N3          44.6490    17.9340    41.3810 N.ar         1 ADN236   0.0000
    19 C4          44.1990    16.8000    40.8370 C.ar         1 ADN236   0.0000
    20 H5'         40.2597    18.4100    40.4416 H            1 ADN236   0.0000
    21 H5'1        40.8193    18.8278    42.5919 H            1 ADN236   0.0000
    22 H5'2        42.0608    18.1430    41.7818 H            1 ADN236   0.0000
    23 H4'         40.2981    16.7727    43.5784 H            1 ADN236   0.0000
    24 H3'         42.3460    18.1230    44.3782 H            1 ADN236   0.0000
    25 H6          42.1426    17.0621    46.2341 H            1 ADN236   0.0000
    26 H2'         44.0618    17.1883    43.2833 H            1 ADN236   0.0000
    27 H8          43.6785    15.1022    45.0976 H            1 ADN236   0.0000
    28 H1'         43.2100    14.5655    42.9207 H            1 ADN236   0.0000
    29 H10         42.8977    13.9875    40.3419 H            1 ADN236   0.0000
    30 H11         45.8145    18.0750    36.8482 H            1 ADN236   0.0000
    31 H12         45.0483    16.5235    36.9233 H            1 ADN236   0.0000
    32 H13         45.6129    19.6543    41.0074 H            1 ADN236   0.0000
    33 H14         43.9372    14.8975    38.2354 H            1 ADN236   0.0000
@<TRIPOS>BOND
     1    1    2       1
     2    2    3       1
     3    3    4       1
     4    3    5       1
     5    4    9       1
     6    5    6       1
     7    5    7       1
     8    7    8       1
     9    7    9       1
    10    9   10       1
    11   10   11       1
    12   10   19       1
    13   11   12       2
    14   12   13       1
    15   13   14      ar
    16   13   19      ar
    17   14   15       1
    18   14   16      ar
    19   16   17      ar
    20   17   18      ar
    21   18   19      ar
    22    1   20       1
    23    2   21       1
    24    2   22       1
    25    3   23       1
    26    5   24       1
    27    6   25       1
    28    7   26       1
    29    8   27       1
    30    9   28       1
    31   11   29       1
    32   15   30       1
    33   15   31       1
    34   17   32       1
    35   12   33       1
@<TRIPOS>SUBSTRUCTURE
     1 ADN236      1 GROUP             4 A     ADN     0 **** ADN A 236
