@<TRIPOS>MOLECULE
5bz4_COA_5_ligand
   80    82     1     0     0
SMALL
NO_CHARGES


@<TRIPOS>ATOM
     1 N1A         59.5560   -91.0570    42.9380 N.ar         1 COA501   0.0000
     2 C2A         60.5500   -92.0250    42.9560 C.ar         1 COA501   0.0000
     3 N3A         60.2230   -93.3420    43.1310 N.ar         1 COA501   0.0000
     4 C4A         58.8980   -93.6840    43.2890 C.ar         1 COA501   0.0000
     5 C5A         57.9210   -92.7250    43.2730 C.ar         1 COA501   0.0000
     6 C6A         58.2540   -91.3910    43.0910 C.ar         1 COA501   0.0000
     7 N6A         57.3640   -90.2560    43.0470 N.pl3        1 COA501   0.0000
     8 N7A         56.7160   -93.3320    43.4610 N.2          1 COA501   0.0000
     9 C8A         56.9300   -94.6350    43.5800 C.2          1 COA501   0.0000
    10 N9A         58.2770   -94.8660    43.4750 N.pl3        1 COA501   0.0000
    11 C1B         58.9730   -96.1050    43.5550 C.3          1 COA501   0.0000
    12 C2B         59.4190   -96.5770    42.4250 C.3          1 COA501   0.0000
    13 O2B         58.4000   -97.2020    41.6300 O.3          1 COA501   0.0000
    14 C3B         60.4510   -97.7220    42.9450 C.3          1 COA501   0.0000
    15 O3B         59.7050   -98.7270    43.6080 O.3          1 COA501   0.0000
    16 P3B         59.3250  -100.1540    42.9740 P.3          1 COA501   0.0000
    17 O7A         60.5780  -100.9700    42.8780 O.co2        1 COA501   0.0000
    18 O8A         58.6900   -99.9460    41.5980 O.co2        1 COA501  -1.0000
    19 O9A         58.3270  -100.8190    43.8960 O.co2        1 COA501  -1.0000
    20 C4B         61.2240   -97.0180    43.8260 C.3          1 COA501   0.0000
    21 O4B         60.2950   -95.9990    44.4650 O.3          1 COA501   0.0000
    22 C5B         62.2640   -96.2320    43.0730 C.3          1 COA501   0.0000
    23 O5B         63.4420   -96.9780    43.0210 O.3          1 COA501   0.0000
    24 P1A         64.3440   -96.7800    41.7700 P.3          1 COA501   0.0000
    25 O1A         64.6670   -98.1280    41.1580 O.co2        1 COA501   0.0000
    26 O2A         63.5780   -95.8930    40.7800 O.co2        1 COA501  -1.0000
    27 O3A         65.6820   -96.0290    42.1940 O.3          1 COA501   0.0000
    28 P2A         66.9310   -96.6890    42.8860 P.3          1 COA501   0.0000
    29 O4A         66.4600   -97.6650    43.9020 O.co2        1 COA501   0.0000
    30 O5A         67.7140   -97.3570    41.8170 O.co2        1 COA501  -1.0000
    31 O6A         67.8410   -95.5610    43.5620 O.3          1 COA501   0.0000
    32 CBP         68.6160   -93.3300    42.9100 C.3          1 COA501   0.0000
    33 CCP         68.8990   -94.9060    42.8410 C.3          1 COA501   0.0000
    34 CDP         68.7830   -92.6420    41.5160 C.3          1 COA501   0.0000
    35 CEP         67.1860   -93.1780    43.4250 C.3          1 COA501   0.0000
    36 CAP         69.5060   -92.5880    43.9730 C.3          1 COA501   0.0000
    37 OAP         69.9470   -93.4910    44.9200 O.3          1 COA501   0.0000
    38 C9P         70.6020   -91.7890    43.3590 C.2          1 COA501   0.0000
    39 O9P         71.7110   -92.2000    43.1550 O.2          1 COA501   0.0000
    40 N8P         70.2060   -90.4630    43.0290 N.am         1 COA501   0.0000
    41 C7P         70.9860   -89.3930    42.4720 C.3          1 COA501   0.0000
    42 C6P         72.1240   -89.7110    41.4600 C.3          1 COA501   0.0000
    43 C5P         73.1210   -88.6170    41.8470 C.2          1 COA501   0.0000
    44 O5P         73.5900   -88.5500    43.0060 O.2          1 COA501   0.0000
    45 N4P         73.5060   -87.6270    40.9230 N.am         1 COA501   0.0000
    46 C3P         74.4340   -86.6290    41.3850 C.3          1 COA501   0.0000
    47 C2P         73.7500   -85.5180    42.2630 C.3          1 COA501   0.0000
    48 S1P         74.9500   -84.3610    42.9340 S.3          1 COA501   0.0000
    49 H2A         61.5072   -91.7595    42.8408 H            1 COA501   0.0000
    50 H6A1        56.3783   -90.3893    43.1498 H            1 COA501   0.0000
    51 H6A2        57.7330   -89.3362    42.9137 H            1 COA501   0.0000
    52 H8A         56.2271   -95.3319    43.7224 H            1 COA501   0.0000
    53 H1B         58.3627   -96.7845    43.9623 H            1 COA501   0.0000
    54 H2B         59.8984   -95.8705    41.9044 H            1 COA501   0.0000
    55 H7          58.6400   -98.1601    41.4736 H            1 COA501   0.0000
    56 H3B         60.9945   -98.0987    42.1948 H            1 COA501   0.0000
    57 H4B         61.6398   -97.6168    44.5105 H            1 COA501   0.0000
    58 H5B1        62.4354   -95.3657    43.5422 H            1 COA501   0.0000
    59 H5B2        61.9404   -96.0499    42.1445 H            1 COA501   0.0000
    60 HCP1        68.9048   -95.2115    41.8888 H            1 COA501   0.0000
    61 HCP2        69.7812   -95.1143    43.2633 H            1 COA501   0.0000
    62 HDP1        68.5982   -91.6631    41.6031 H            1 COA501   0.0000
    63 HDP2        69.7179   -92.7768    41.1876 H            1 COA501   0.0000
    64 HDP3        68.1397   -93.0461    40.8657 H            1 COA501   0.0000
    65 HEP1        66.9558   -92.2069    43.4878 H            1 COA501   0.0000
    66 HEP2        66.5549   -93.6301    42.7947 H            1 COA501   0.0000
    67 HEP3        67.1112   -93.5975    44.3297 H            1 COA501   0.0000
    68 HAP         68.9090   -91.9412    44.4476 H            1 COA501   0.0000
    69 H21         70.5126   -93.0169    45.5947 H            1 COA501   0.0000
    70 H8P         69.2473   -90.2445    43.2109 H            1 COA501   0.0000
    71 H7P1        71.4080   -88.9120    43.2404 H            1 COA501   0.0000
    72 H7P2        70.3469   -88.7810    42.0061 H            1 COA501   0.0000
    73 H6P1        71.8174   -89.6178    40.5127 H            1 COA501   0.0000
    74 H6P2        72.5020   -90.6262    41.5995 H            1 COA501   0.0000
    75 H4P         73.1508   -87.6178    39.9883 H            1 COA501   0.0000
    76 H3P1        74.8557   -86.1929    40.5900 H            1 COA501   0.0000
    77 H3P2        75.1400   -87.0786    41.9322 H            1 COA501   0.0000
    78 H2P1        73.2657   -85.9567    43.0199 H            1 COA501   0.0000
    79 H2P2        73.0973   -85.0147    41.6967 H            1 COA501   0.0000
    80 H1P         75.4359   -83.9123    42.1840 H            1 COA501   0.0000
@<TRIPOS>BOND
     1    1    2      ar
     2    1    6      ar
     3    2    3      ar
     4    3    4      ar
     5    4    5      ar
     6    4   10       1
     7    5    6      ar
     8    5    8       1
     9    6    7       1
    10    8    9       2
    11    9   10       1
    12   10   11       1
    13   11   12       1
    14   11   21       1
    15   12   13       1
    16   12   14       1
    17   14   15       1
    18   14   20       1
    19   15   16       1
    20   16   17      ar
    21   16   18      ar
    22   16   19      ar
    23   20   21       1
    24   20   22       1
    25   22   23       1
    26   23   24       1
    27   24   25      ar
    28   24   26      ar
    29   24   27       1
    30   27   28       1
    31   28   29      ar
    32   28   30      ar
    33   28   31       1
    34   31   33       1
    35   32   33       1
    36   32   34       1
    37   32   35       1
    38   32   36       1
    39   36   37       1
    40   36   38       1
    41   38   39       2
    42   38   40      am
    43   40   41       1
    44   41   42       1
    45   42   43       1
    46   43   44       2
    47   43   45      am
    48   45   46       1
    49   46   47       1
    50   47   48       1
    51    2   49       1
    52    7   50       1
    53    7   51       1
    54    9   52       1
    55   11   53       1
    56   12   54       1
    57   13   55       1
    58   14   56       1
    59   48   80       1
    60   47   79       1
    61   20   57       1
    62   22   58       1
    63   22   59       1
    64   47   78       1
    65   46   77       1
    66   33   60       1
    67   33   61       1
    68   34   62       1
    69   34   63       1
    70   34   64       1
    71   35   65       1
    72   35   66       1
    73   35   67       1
    74   36   68       1
    75   37   69       1
    76   40   70       1
    77   41   71       1
    78   41   72       1
    79   42   73       1
    80   42   74       1
    81   45   75       1
    82   46   76       1
@<TRIPOS>SUBSTRUCTURE
     1 COA501      1 GROUP             4 K     COA     0 **** COA K 501
