@<TRIPOS>MOLECULE
2qtt_ADE_1_ligand
   15    16     1     0     0
SMALL
NO_CHARGES


@<TRIPOS>ATOM
     1 N9          -1.6590     0.3500   -22.2130 N.2          1 ADE268   0.0000
     2 C8          -0.6050     1.1010   -22.6740 C.2          1 ADE268   0.0000
     3 N7          -0.5990     1.2600   -23.9830 N.pl3        1 ADE268   0.0000
     4 C5          -1.7250     0.5620   -24.4080 C.ar         1 ADE268   0.0000
     5 C6          -2.3000     0.3280   -25.6800 C.ar         1 ADE268   0.0000
     6 N6          -1.7900     0.7910   -26.8230 N.pl3        1 ADE268   0.0000
     7 N1          -3.4280    -0.4120   -25.7500 N.ar         1 ADE268   0.0000
     8 C2          -3.9580    -0.8870   -24.6150 C.ar         1 ADE268   0.0000
     9 N3          -3.5090    -0.7370   -23.3680 N.ar         1 ADE268   0.0000
    10 C4          -2.3870     0.0030   -23.3290 C.ar         1 ADE268   0.0000
    11 H1           0.0927     1.4908   -22.0729 H            1 ADE268   0.0000
    12 H2          -2.2446     0.5905   -27.6908 H            1 ADE268   0.0000
    13 H3          -0.9532     1.3384   -26.8117 H            1 ADE268   0.0000
    14 H4          -4.7968    -1.4220   -24.7155 H            1 ADE268   0.0000
    15 H5           0.0607     1.7644   -24.5401 H            1 ADE268   0.0000
@<TRIPOS>BOND
     1    1    2       2
     2    1   10       1
     3    2    3       1
     4    3    4       1
     5    4    5      ar
     6    4   10      ar
     7    5    6       1
     8    5    7      ar
     9    7    8      ar
    10    8    9      ar
    11    9   10      ar
    12    8   14       1
    13    2   11       1
    14    6   12       1
    15    6   13       1
    16    3   15       1
@<TRIPOS>SUBSTRUCTURE
     1 ADE268      1 GROUP             4 A     ADE     0 **** ADE A 268
