@<TRIPOS>MOLECULE
1zhw_HC2_1_ligand
   75    78     1     0     0
SMALL
NO_CHARGES


@<TRIPOS>ATOM
     1 C1          57.2880    36.2750    33.2290 C.3          1 HC21001   0.0000
     2 C2          57.3430    36.3930    34.7560 C.3          1 HC21001   0.0000
     3 C3          55.9560    36.1850    35.3730 C.3          1 HC21001   0.0000
     4 C4          55.4390    34.7890    35.0140 C.3          1 HC21001   0.0000
     5 C5          55.5270    34.5410    33.5060 C.2          1 HC21001   0.0000
     6 C6          54.4320    33.9970    32.8420 C.2          1 HC21001   0.0000
     7 C7          54.3420    33.7260    31.4810 C.3          1 HC21001   0.0000
     8 C8          55.7030    33.7430    30.7770 C.3          1 HC21001   0.0000
     9 C9          56.5470    34.9410    31.2330 C.3          1 HC21001   0.0000
    10 C10         56.8100    34.9000    32.7460 C.3          1 HC21001   0.0000
    11 C11         57.8370    35.0620    30.4090 C.3          1 HC21001   0.0000
    12 C12         57.5770    35.0670    28.8970 C.3          1 HC21001   0.0000
    13 C13         56.8090    33.8090    28.4790 C.3          1 HC21001   0.0000
    14 C14         55.4940    33.8030    29.2610 C.3          1 HC21001   0.0000
    15 C15         54.7520    32.6220    28.6320 C.3          1 HC21001   0.0000
    16 C16         55.0120    32.8590    27.1410 C.3          1 HC21001   0.0000
    17 C17         56.1730    33.8610    27.0840 C.3          1 HC21001   0.0000
    18 C18         57.6340    32.5410    28.7270 C.3          1 HC21001   0.0000
    19 C19         57.8660    33.8390    33.0770 C.3          1 HC21001   0.0000
    20 C20         57.0790    33.6710    25.8600 C.3          1 HC21001   0.0000
    21 C21         57.7750    32.3070    25.8680 C.3          1 HC21001   0.0000
    22 C22         56.2410    33.8070    24.5830 C.3          1 HC21001   0.0000
    23 C23         57.0610    33.6190    23.3030 C.3          1 HC21001   0.0000
    24 C24         56.1880    33.6750    22.0460 C.3          1 HC21001   0.0000
    25 C25         55.2100    32.5020    21.9370 C.3          1 HC21001   0.0000
    26 C26         54.3080    32.6750    20.7120 C.3          1 HC21001   0.0000
    27 C27         55.9410    31.1600    21.8490 C.3          1 HC21001   0.0000
    28 O1          56.0370    36.3160    36.7960 O.3          1 HC21001   0.0000
    29 O2          58.0600    34.7120    25.8590 O.3          1 HC21001   0.0000
    30 H1          58.2046    36.4389    32.8644 H            1 HC21001   0.0000
    31 H2          56.6606    36.9706    32.8789 H            1 HC21001   0.0000
    32 H3          57.6772    37.3029    35.0019 H            1 HC21001   0.0000
    33 H4          57.9680    35.7000    35.1153 H            1 HC21001   0.0000
    34 H5          55.3268    36.8737    35.0126 H            1 HC21001   0.0000
    35 H6          54.4850    34.7095    35.3031 H            1 HC21001   0.0000
    36 H7          55.9900    34.1039    35.4906 H            1 HC21001   0.0000
    37 H8          53.6303    33.7793    33.3986 H            1 HC21001   0.0000
    38 H9          53.7549    34.4155    31.0567 H            1 HC21001   0.0000
    39 H10         53.9329    32.8212    31.3624 H            1 HC21001   0.0000
    40 H11         56.1923    32.9003    31.0015 H            1 HC21001   0.0000
    41 H12         56.0075    35.7635    31.0528 H            1 HC21001   0.0000
    42 H13         58.4305    34.2878    30.6288 H            1 HC21001   0.0000
    43 H14         58.2961    35.9150    30.6573 H            1 HC21001   0.0000
    44 H15         58.4517    35.0943    28.4130 H            1 HC21001   0.0000
    45 H16         57.0387    35.8753    28.6586 H            1 HC21001   0.0000
    46 H17         54.9940    34.6415    29.0442 H            1 HC21001   0.0000
    47 H18         53.7747    32.6508    28.8417 H            1 HC21001   0.0000
    48 H19         55.1323    31.7482    28.9350 H            1 HC21001   0.0000
    49 H20         54.1992    33.2399    26.7003 H            1 HC21001   0.0000
    50 H21         55.2658    32.0034    26.6898 H            1 HC21001   0.0000
    51 H22         55.7609    34.7677    26.9938 H            1 HC21001   0.0000
    52 H23         57.1066    31.7397    28.4447 H            1 HC21001   0.0000
    53 H24         58.4813    32.5858    28.1977 H            1 HC21001   0.0000
    54 H25         57.8523    32.4704    29.7003 H            1 HC21001   0.0000
    55 H26         57.5504    32.9445    32.7605 H            1 HC21001   0.0000
    56 H27         58.7252    34.0700    32.6204 H            1 HC21001   0.0000
    57 H28         58.0112    33.8104    34.0660 H            1 HC21001   0.0000
    58 H29         58.3537    32.2233    25.0568 H            1 HC21001   0.0000
    59 H30         58.3390    32.2254    26.6897 H            1 HC21001   0.0000
    60 H31         57.0867    31.5816    25.8627 H            1 HC21001   0.0000
    61 H32         55.8309    34.7189    24.5671 H            1 HC21001   0.0000
    62 H33         55.5178    33.1166    24.6019 H            1 HC21001   0.0000
    63 H34         57.5167    32.7296    23.3397 H            1 HC21001   0.0000
    64 H35         57.7481    34.3437    23.2509 H            1 HC21001   0.0000
    65 H36         56.7851    33.6663    21.2439 H            1 HC21001   0.0000
    66 H37         55.6630    34.5259    22.0615 H            1 HC21001   0.0000
    67 H38         54.6340    32.4945    22.7544 H            1 HC21001   0.0000
    68 H39         53.6749    31.9032    20.6526 H            1 HC21001   0.0000
    69 H40         53.7894    33.5258    20.7974 H            1 HC21001   0.0000
    70 H41         54.8706    32.7090    19.8860 H            1 HC21001   0.0000
    71 H42         55.2720    30.4200    21.7792 H            1 HC21001   0.0000
    72 H43         56.5304    31.1538    21.0412 H            1 HC21001   0.0000
    73 H44         56.4981    31.0295    22.6691 H            1 HC21001   0.0000
    74 H45         55.1304    36.1797    37.1954 H            1 HC21001   0.0000
    75 H46         58.8654    34.4116    26.3700 H            1 HC21001   0.0000
@<TRIPOS>BOND
     1    1    2       1
     2    1   10       1
     3    2    3       1
     4    3    4       1
     5    3   28       1
     6    4    5       1
     7    5    6       2
     8    5   10       1
     9    6    7       1
    10    7    8       1
    11    8    9       1
    12    8   14       1
    13    9   10       1
    14    9   11       1
    15   10   19       1
    16   11   12       1
    17   12   13       1
    18   13   14       1
    19   13   17       1
    20   13   18       1
    21   14   15       1
    22   15   16       1
    23   16   17       1
    24   17   20       1
    25   20   21       1
    26   20   22       1
    27   20   29       1
    28   22   23       1
    29   23   24       1
    30   24   25       1
    31   25   26       1
    32   25   27       1
    33    1   30       1
    34    1   31       1
    35    2   32       1
    36    2   33       1
    37    3   34       1
    38    4   35       1
    39    4   36       1
    40    6   37       1
    41    7   38       1
    42    7   39       1
    43    8   40       1
    44    9   41       1
    45   11   42       1
    46   11   43       1
    47   12   44       1
    48   12   45       1
    49   14   46       1
    50   15   47       1
    51   15   48       1
    52   16   49       1
    53   16   50       1
    54   17   51       1
    55   18   52       1
    56   18   53       1
    57   18   54       1
    58   19   55       1
    59   19   56       1
    60   19   57       1
    61   21   58       1
    62   21   59       1
    63   21   60       1
    64   22   61       1
    65   22   62       1
    66   23   63       1
    67   23   64       1
    68   24   65       1
    69   24   66       1
    70   25   67       1
    71   26   68       1
    72   26   69       1
    73   26   70       1
    74   27   71       1
    75   27   72       1
    76   27   73       1
    77   28   74       1
    78   29   75       1
@<TRIPOS>SUBSTRUCTURE
     1 HC21001     1 GROUP             4 A     HC2     0 **** HC2 A1001
