@<TRIPOS>MOLECULE
./coach420/1a2k/ligand.pdb
 28 30 0 0 0
SMALL
GASTEIGER

@<TRIPOS>ATOM
      1  PB        53.3840   -6.0660   83.1750 P.3   220  GDP220      0.5373
      2  O1B       53.6250   -4.5730   83.2550 O.3   220  GDP220     -0.1143
      3  O2B       51.9100   -6.1950   83.1850 O.3   220  GDP220     -0.1143
      4  O3B       53.9720   -6.6220   81.9940 O.2   220  GDP220     -0.2221
      5  O3A       54.1170   -6.4620   84.5780 O.3   220  GDP220     -0.2261
      6  PA        55.3950   -7.2430   85.0080 P.3   220  GDP220      0.2231
      7  O1A       56.6670   -6.5230   84.7700 O.2   220  GDP220     -0.5169
      8  O2A       55.1090   -7.3910   86.4820 O.3   220  GDP220     -0.4370
      9  O5'       55.2230   -8.5740   84.2300 O.3   220  GDP220     -0.3111
     10  C5'       54.4670   -9.6340   84.7750 C.3   220  GDP220      0.1813
     11  C4'       55.0630  -10.9490   85.1560 C.3   220  GDP220      0.1801
     12  O4'       55.9150  -11.4830   84.1220 O.3   220  GDP220     -0.3306
     13  C3'       55.8350  -11.0450   86.4610 C.3   220  GDP220      0.2161
     14  O3'       55.4990  -12.1840   87.2500 O.3   220  GDP220     -0.2175
     15  C2'       57.2850  -11.0960   86.0080 C.3   220  GDP220      0.2337
     16  O2'       58.0870  -11.6440   87.0340 O.3   220  GDP220     -0.2155
     17  C1'       57.1680  -11.8950   84.6650 C.3   220  GDP220      0.2409
     18  N9        58.3320  -11.5660   83.8100 N.ar  220  GDP220     -0.2693
     19  C8        58.6270  -10.3210   83.2850 C.ar  220  GDP220      0.1817
     20  N7        59.7410  -10.2530   82.5980 N.ar  220  GDP220     -0.2173
     21  C5        60.2410  -11.5530   82.7130 C.ar  220  GDP220      0.1748
     22  C6        61.4280  -12.0700   82.1400 C.ar  220  GDP220      0.3023
     23  O6        62.2390  -11.5060   81.4120 O.2   220  GDP220     -0.2633
     24  N1        61.5530  -13.4170   82.4500 N.ar  220  GDP220     -0.1709
     25  C2        60.6400  -14.1560   83.1940 C.ar  220  GDP220      0.2606
     26  N2        61.0210  -15.4210   83.3590 N.pl3 220  GDP220     -0.0859
     27  N3        59.5130  -13.6800   83.6820 N.ar  220  GDP220     -0.1918
     28  C4        59.3790  -12.3570   83.4240 C.ar  220  GDP220      0.1723
@<TRIPOS>BOND
     1     1     4    2
     2     1     3    1
     3     1     2    1
     4     1     5    1
     5     5     6    1
     6     6     9    1
     7     6     7    2
     8     6     8    1
     9     9    10    1
    10    10    11    1
    11    11    12    1
    12    11    13    1
    13    12    17    1
    14    13    15    1
    15    13    14    1
    16    15    17    1
    17    15    16    1
    18    17    18    1
    19    18    19   ar
    20    18    28   ar
    21    19    20   ar
    22    20    21   ar
    23    21    22   ar
    24    21    28   ar
    25    22    23    2
    26    22    24   ar
    27    24    25   ar
    28    25    26    1
    29    25    27   ar
    30    27    28   ar
