@<TRIPOS>MOLECULE
2o2z_NAD_3_ligand
   71    75     1     0     0
SMALL
NO_CHARGES


@<TRIPOS>ATOM
     1 PA          14.0860    37.6370   161.5490 P.3          1 NAD400   0.0000
     2 O1A         13.0330    38.3570   162.2860 O.co2        1 NAD400   0.0000
     3 O2A         13.6060    36.2900   161.1520 O.co2        1 NAD400  -1.0000
     4 O5B         14.4980    38.5580   160.2770 O.3          1 NAD400   0.0000
     5 C5B         15.5600    38.2090   159.3820 C.3          1 NAD400   0.0000
     6 C4B         16.8040    39.1410   159.4310 C.3          1 NAD400   0.0000
     7 O4B         16.8620    39.9600   158.2750 O.3          1 NAD400   0.0000
     8 C3B         16.7870    40.1420   160.5860 C.3          1 NAD400   0.0000
     9 O3B         18.0690    40.5990   160.9720 O.3          1 NAD400   0.0000
    10 C2B         15.9500    41.2740   160.0250 C.3          1 NAD400   0.0000
    11 O2B         16.4820    42.5160   160.4410 O.3          1 NAD400   0.0000
    12 C1B         15.9590    41.0340   158.4980 C.3          1 NAD400   0.0000
    13 N9A         14.6740    40.5720   157.9070 N.pl3        1 NAD400   0.0000
    14 C8A         14.6360    39.7900   156.7800 C.2          1 NAD400   0.0000
    15 N7A         13.3460    39.5230   156.5170 N.2          1 NAD400   1.0000
    16 C5A         12.5370    40.1080   157.4240 C.ar         1 NAD400   0.0000
    17 C6A         11.1460    40.1270   157.5660 C.ar         1 NAD400   0.0000
    18 N6A         10.4400    39.1110   157.0890 N.pl3        1 NAD400   0.0000
    19 N1A         10.5930    40.8290   158.6100 N.ar         1 NAD400   0.0000
    20 C2A         11.4080    41.4940   159.5050 C.ar         1 NAD400   0.0000
    21 N3A         12.7860    41.4570   159.3520 N.ar         1 NAD400   0.0000
    22 C4A         13.3610    40.7760   158.3230 C.ar         1 NAD400   0.0000
    23 O3          15.3870    37.5030   162.5250 O.3          1 NAD400   0.0000
    24 PN          16.9050    36.9510   162.2320 P.3          1 NAD400   0.0000
    25 O1N         17.0560    36.2800   160.9080 O.co2        1 NAD400   0.0000
    26 O2N         17.8530    38.0290   162.6310 O.co2        1 NAD400  -1.0000
    27 O5D         17.0730    35.7790   163.3350 O.3          1 NAD400   0.0000
    28 C5D         17.1190    34.4000   163.0050 C.3          1 NAD400   0.0000
    29 C4D         16.1780    33.6160   163.9140 C.3          1 NAD400   0.0000
    30 O4D         16.2810    34.1460   165.2330 O.3          1 NAD400   0.0000
    31 C3D         14.7000    33.6800   163.4690 C.3          1 NAD400   0.0000
    32 O3D         14.0990    32.4010   163.3960 O.3          1 NAD400   0.0000
    33 C2D         14.0600    34.5160   164.5630 C.3          1 NAD400   0.0000
    34 O2D         12.6960    34.2750   164.8730 O.3          1 NAD400   0.0000
    35 C1D         14.9620    34.1420   165.7260 C.3          1 NAD400   0.0000
    36 N1N         14.6290    35.0680   166.7920 N.ar         1 NAD400   1.0000
    37 C2N         15.2760    36.2430   167.0170 C.ar         1 NAD400   0.0000
    38 C3N         14.8030    37.0080   168.0760 C.ar         1 NAD400   0.0000
    39 C7N         15.3340    38.3560   168.3770 C.2          1 NAD400   0.0000
    40 O7N         15.1310    38.8640   169.6820 O.2          1 NAD400   0.0000
    41 N7N         15.9720    39.0050   167.4010 N.am         1 NAD400   0.0000
    42 C4N         13.7220    36.6160   168.8390 C.ar         1 NAD400   0.0000
    43 C5N         13.0940    35.4160   168.5560 C.ar         1 NAD400   0.0000
    44 C6N         13.5650    34.6540   167.5240 C.ar         1 NAD400   0.0000
    45 H5B1        15.1972    38.2268   158.4503 H            1 NAD400   0.0000
    46 H5B2        15.8599    37.2815   159.6053 H            1 NAD400   0.0000
    47 H4B         17.6334    38.5850   159.4858 H            1 NAD400   0.0000
    48 H3B         16.3222    39.7385   161.3741 H            1 NAD400   0.0000
    49 H5          18.4386    39.9965   161.6794 H            1 NAD400   0.0000
    50 H2B         15.0133    41.1885   160.3646 H            1 NAD400   0.0000
    51 H7          15.9258    43.2586   160.0679 H            1 NAD400   0.0000
    52 H1B         16.2787    41.8545   158.0241 H            1 NAD400   0.0000
    53 H8A         15.4246    39.4762   156.2511 H            1 NAD400   0.0000
    54 H6A1         9.4443    39.1071   157.1813 H            1 NAD400   0.0000
    55 H6A2        10.9033    38.3487   156.6370 H            1 NAD400   0.0000
    56 H2A         11.0038    42.0032   160.2648 H            1 NAD400   0.0000
    57 H5D1        18.0526    34.0618   163.1236 H            1 NAD400   0.0000
    58 H5D2        16.8386    34.2775   162.0530 H            1 NAD400   0.0000
    59 H4D         16.4682    32.6591   163.9285 H            1 NAD400   0.0000
    60 H3D         14.6246    34.1477   162.5883 H            1 NAD400   0.0000
    61 H17         13.1216    32.4803   163.5920 H            1 NAD400   0.0000
    62 H2D         14.1826    35.4854   164.3503 H            1 NAD400   0.0000
    63 H19         12.1670    35.1098   164.7204 H            1 NAD400   0.0000
    64 H1D         14.7337    33.2150   166.0236 H            1 NAD400   0.0000
    65 H2N         16.0470    36.5390   166.4532 H            1 NAD400   0.0000
    66 H7N1        16.3443    39.9180   167.5678 H            1 NAD400   0.0000
    67 H7N2        16.0778    38.5783   166.5028 H            1 NAD400   0.0000
    68 H4N         13.3962    37.1928   169.5881 H            1 NAD400   0.0000
    69 H5N         12.3098    35.1119   169.0968 H            1 NAD400   0.0000
    70 H6N         13.1217    33.7843   167.3069 H            1 NAD400   0.0000
    71 H7A         13.0278    38.9648   155.7507 H            1 NAD400   0.0000
@<TRIPOS>BOND
     1    1    2      ar
     2    1    3      ar
     3    1    4       1
     4    1   23       1
     5    4    5       1
     6    5    6       1
     7    6    7       1
     8    6    8       1
     9    7   12       1
    10    8    9       1
    11    8   10       1
    12   10   11       1
    13   10   12       1
    14   12   13       1
    15   13   14       1
    16   13   22       1
    17   14   15       2
    18   15   16       1
    19   16   17      ar
    20   16   22      ar
    21   17   18       1
    22   17   19      ar
    23   19   20      ar
    24   20   21      ar
    25   21   22      ar
    26   23   24       1
    27   24   25      ar
    28   24   26      ar
    29   24   27       1
    30   27   28       1
    31   28   29       1
    32   29   30       1
    33   29   31       1
    34   30   35       1
    35   31   32       1
    36   31   33       1
    37   33   34       1
    38   33   35       1
    39   35   36       1
    40   36   37      ar
    41   36   44      ar
    42   37   38      ar
    43   38   39       1
    44   38   42      ar
    45   39   40       2
    46   39   41      am
    47   42   43      ar
    48   43   44      ar
    49   44   70       1
    50    5   45       1
    51    5   46       1
    52    6   47       1
    53    8   48       1
    54    9   49       1
    55   10   50       1
    56   11   51       1
    57   12   52       1
    58   14   53       1
    59   18   54       1
    60   18   55       1
    61   20   56       1
    62   43   69       1
    63   28   57       1
    64   28   58       1
    65   29   59       1
    66   31   60       1
    67   32   61       1
    68   33   62       1
    69   34   63       1
    70   35   64       1
    71   37   65       1
    72   41   66       1
    73   41   67       1
    74   42   68       1
    75   15   71       1
@<TRIPOS>SUBSTRUCTURE
     1 NAD400      1 GROUP             4 C     NAD     0 **** NAD C 400
