@<TRIPOS>MOLECULE
1vji_FMN_1_ligand
   50    52     1     0     0
SMALL
NO_CHARGES


@<TRIPOS>ATOM
     1 N1          14.1900    42.6630    60.2290 N.2          1 FMN373   0.0000
     2 C2          13.8200    41.4600    59.6940 C.2          1 FMN373   0.0000
     3 O2          14.6400    40.5530    59.5540 O.2          1 FMN373   0.0000
     4 N3          12.5570    41.2620    59.2380 N.pl3        1 FMN373   0.0000
     5 C4          11.5860    42.2130    59.3540 C.2          1 FMN373   0.0000
     6 O4          10.5460    42.0780    58.6360 O.2          1 FMN373   0.0000
     7 C4A         11.9290    43.4260    59.9410 C.2          1 FMN373   0.0000
     8 N5          10.9740    44.4430    60.0290 N.2          1 FMN373   0.0000
     9 C5A         11.3770    45.7270    60.5200 C.ar         1 FMN373   0.0000
    10 C6          10.4620    46.7750    60.5900 C.ar         1 FMN373   0.0000
    11 C7          10.7870    48.0200    61.1140 C.ar         1 FMN373   0.0000
    12 C7M          9.8490    49.1840    60.8680 C.3          1 FMN373   0.0000
    13 C8          12.1030    48.2320    61.5330 C.ar         1 FMN373   0.0000
    14 C8M         12.5330    49.6440    61.8570 C.3          1 FMN373   0.0000
    15 C9          13.0500    47.1950    61.4820 C.ar         1 FMN373   0.0000
    16 C9A         12.6920    45.9550    60.9660 C.ar         1 FMN373   0.0000
    17 N10         13.6380    44.9200    60.8200 N.pl3        1 FMN373   0.0000
    18 C10         13.2360    43.6610    60.3580 C.2          1 FMN373   0.0000
    19 C1'         15.1040    45.1820    61.0980 C.3          1 FMN373   0.0000
    20 C2'         15.8160    45.8420    59.9050 C.3          1 FMN373   0.0000
    21 O2'         15.8180    44.9560    58.8070 O.3          1 FMN373   0.0000
    22 C3'         17.2510    46.3170    60.3330 C.3          1 FMN373   0.0000
    23 O3'         18.0820    45.2470    60.7890 O.3          1 FMN373   0.0000
    24 C4'         17.1830    47.3770    61.4820 C.3          1 FMN373   0.0000
    25 O4'         16.2490    48.4330    61.1800 O.3          1 FMN373   0.0000
    26 C5'         18.5550    47.9540    61.8910 C.3          1 FMN373   0.0000
    27 O5'         19.0130    48.5270    60.6970 O.3          1 FMN373   0.0000
    28 P           18.9500    50.1850    60.5900 P.3          1 FMN373   0.0000
    29 O1P         19.7950    50.7410    61.6050 O.co2        1 FMN373   0.0000
    30 O2P         17.5030    50.6390    60.7000 O.co2        1 FMN373  -1.0000
    31 O3P         19.4070    50.4320    59.1800 O.co2        1 FMN373  -1.0000
    32 H1          12.3309    40.3905    58.8028 H            1 FMN373   0.0000
    33 H2           9.5338    46.6252    60.2494 H            1 FMN373   0.0000
    34 H7M1        10.2159    50.0057    61.3041 H            1 FMN373   0.0000
    35 H7M2         9.7617    49.3396    59.8840 H            1 FMN373   0.0000
    36 H7M3         8.9502    48.9751    61.2534 H            1 FMN373   0.0000
    37 H8M1        13.4919    49.6436    62.1407 H            1 FMN373   0.0000
    38 H8M2        12.4255    50.2195    61.0463 H            1 FMN373   0.0000
    39 H8M3        11.9662    50.0032    62.5984 H            1 FMN373   0.0000
    40 H9          13.9798    47.3489    61.8163 H            1 FMN373   0.0000
    41 H1'1        15.5536    44.3118    61.2994 H            1 FMN373   0.0000
    42 H1'2        15.1778    45.7867    61.8911 H            1 FMN373   0.0000
    43 H2'         15.2903    46.6518    59.6443 H            1 FMN373   0.0000
    44 H13         14.8757    44.7380    58.5529 H            1 FMN373   0.0000
    45 H3'         17.6908    46.7404    59.5409 H            1 FMN373   0.0000
    46 H15         18.9785    45.6076    61.0465 H            1 FMN373   0.0000
    47 H4'         16.8241    46.9019    62.2854 H            1 FMN373   0.0000
    48 H17         16.7303    49.3094    61.1645 H            1 FMN373   0.0000
    49 H5'1        19.1715    47.2318    62.2047 H            1 FMN373   0.0000
    50 H5'2        18.4573    48.6438    62.6084 H            1 FMN373   0.0000
@<TRIPOS>BOND
     1    1    2       1
     2    1   18       2
     3    2    3       2
     4    2    4       1
     5    4    5       1
     6    5    6       2
     7    5    7       1
     8    7    8       2
     9    7   18       1
    10    8    9       1
    11    9   10      ar
    12    9   16      ar
    13   10   11      ar
    14   11   12       1
    15   11   13      ar
    16   13   14       1
    17   13   15      ar
    18   15   16      ar
    19   16   17       1
    20   17   18       1
    21   17   19       1
    22   19   20       1
    23   20   21       1
    24   20   22       1
    25   22   23       1
    26   22   24       1
    27   24   25       1
    28   24   26       1
    29   26   27       1
    30   27   28       1
    31   28   29      ar
    32   28   30      ar
    33   28   31      ar
    34    4   32       1
    35   10   33       1
    36   12   34       1
    37   12   35       1
    38   12   36       1
    39   14   37       1
    40   14   38       1
    41   14   39       1
    42   15   40       1
    43   19   41       1
    44   19   42       1
    45   20   43       1
    46   21   44       1
    47   22   45       1
    48   23   46       1
    49   24   47       1
    50   25   48       1
    51   26   49       1
    52   26   50       1
@<TRIPOS>SUBSTRUCTURE
     1 FMN373      1 GROUP             4 A     FMN     0 **** FMN A 373
