@<TRIPOS>MOLECULE
3nvc_SAL_1_ligand
   15    15     1     0     0
SMALL
NO_CHARGES


@<TRIPOS>ATOM
     1 C1'        -10.9270    26.3320    24.1480 C.2          1 SAL370   0.0000
     2 O1'        -11.8970    25.5440    24.1910 O.co2        1 SAL370   0.0000
     3 O2'        -10.4030    26.8250    23.1340 O.co2        1 SAL370  -1.0000
     4 C1         -10.2630    26.7110    25.3890 C.ar         1 SAL370   0.0000
     5 C2          -9.1510    25.8390    25.7760 C.ar         1 SAL370   0.0000
     6 C3          -8.4470    26.1130    26.9340 C.ar         1 SAL370   0.0000
     7 C4          -8.8260    27.2220    27.6820 C.ar         1 SAL370   0.0000
     8 C5          -9.8970    28.0440    27.2950 C.ar         1 SAL370   0.0000
     9 C6         -10.6330    27.8010    26.1310 C.ar         1 SAL370   0.0000
    10 O2          -8.8830    24.7750    24.9550 O.3          1 SAL370   0.0000
    11 H1          -7.6878    25.5308    27.2249 H            1 SAL370   0.0000
    12 H2          -8.3225    27.4402    28.5180 H            1 SAL370   0.0000
    13 H3         -10.1404    28.8261    27.8687 H            1 SAL370   0.0000
    14 H4         -11.3904    28.3926    25.8547 H            1 SAL370   0.0000
    15 H5          -8.1341    24.1499    25.1750 H            1 SAL370   0.0000
@<TRIPOS>BOND
     1    1    2      ar
     2    1    3      ar
     3    1    4       1
     4    4    5      ar
     5    4    9      ar
     6    5    6      ar
     7    5   10       1
     8    6    7      ar
     9    7    8      ar
    10    8    9      ar
    11   10   15       1
    12    6   11       1
    13    7   12       1
    14    8   13       1
    15    9   14       1
@<TRIPOS>SUBSTRUCTURE
     1 SAL370      1 GROUP             4 A     SAL     0 **** SAL A 370
