@<TRIPOS>MOLECULE
3beo_UD1_1_ligand
   64    66     1     0     0
SMALL
NO_CHARGES


@<TRIPOS>ATOM
     1 C1'         12.8640    55.4640    39.3990 C.3          1 UD1372   0.0000
     2 C2'         11.6450    54.5520    39.1080 C.3          1 UD1372   0.0000
     3 C3'         10.3270    55.3240    39.1490 C.3          1 UD1372   0.0000
     4 C4'         10.2490    56.1740    40.4170 C.3          1 UD1372   0.0000
     5 C5'         11.5040    56.9740    40.6800 C.3          1 UD1372   0.0000
     6 C6'         11.4530    57.6520    42.0630 C.3          1 UD1372   0.0000
     7 C7'         11.7760    52.5670    37.6510 C.2          1 UD1372   0.0000
     8 C8'         11.5610    52.0370    36.2600 C.3          1 UD1372   0.0000
     9 N2'         11.7540    53.9100    37.8290 N.am         1 UD1372   0.0000
    10 O1'         13.0450    56.3190    38.3140 O.3          1 UD1372   0.0000
    11 O3'          9.1960    54.4400    39.1300 O.3          1 UD1372   0.0000
    12 O4'          9.1370    57.0680    40.3740 O.3          1 UD1372   0.0000
    13 O5'         12.6490    56.1190    40.6000 O.3          1 UD1372   0.0000
    14 O6'         12.3550    58.7810    42.1350 O.3          1 UD1372   0.0000
    15 O7'         11.8950    51.7910    38.5330 O.2          1 UD1372   0.0000
    16 N1          20.3020    58.6980    40.6320 N.pl3        1 UD1372   0.0000
    17 C2          21.2730    59.0830    41.5510 C.2          1 UD1372   0.0000
    18 N3          21.0350    58.9210    42.8760 N.pl3        1 UD1372   0.0000
    19 C4          19.8920    58.3820    43.3240 C.2          1 UD1372   0.0000
    20 C5          18.9020    58.0820    42.4310 C.2          1 UD1372   0.0000
    21 C6          19.1200    58.2200    41.0860 C.2          1 UD1372   0.0000
    22 O2          22.3810    59.5300    41.1430 O.2          1 UD1372   0.0000
    23 O4          19.6700    58.2050    44.5470 O.2          1 UD1372   0.0000
    24 C1B         20.5570    58.8960    39.1780 C.3          1 UD1372   0.0000
    25 C2B         21.5780    57.8500    38.6620 C.3          1 UD1372   0.0000
    26 O2'         22.3420    58.3490    37.5800 O.3          1 UD1372   0.0000
    27 C3B         20.7020    56.6770    38.2120 C.3          1 UD1372   0.0000
    28 C4B         19.3600    57.3720    38.1150 C.3          1 UD1372   0.0000
    29 O4B         19.3710    58.7640    38.4340 O.3          1 UD1372   0.0000
    30 O3B         21.1370    55.8380    37.1190 O.3          1 UD1372   0.0000
    31 C5B         18.2350    56.9550    37.1960 C.3          1 UD1372   0.0000
    32 O5B         17.6890    56.2730    38.3510 O.3          1 UD1372   0.0000
    33 PA          16.5560    55.2000    38.0670 P.3          1 UD1372   0.0000
    34 O1A         17.1650    54.3550    37.0100 O.co2        1 UD1372   0.0000
    35 O2A         16.1830    54.7040    39.4360 O.co2        1 UD1372  -1.0000
    36 O3A         15.3420    56.0220    37.4530 O.3          1 UD1372   0.0000
    37 PB          14.4060    57.1140    38.1540 P.3          1 UD1372   0.0000
    38 O1B         14.0750    58.0930    37.0150 O.co2        1 UD1372   0.0000
    39 O2B         14.9660    57.5160    39.4700 O.co2        1 UD1372  -1.0000
    40 H1'         13.6772    54.8892    39.4907 H            1 UD1372   0.0000
    41 H2'         11.6122    53.8419    39.8113 H            1 UD1372   0.0000
    42 H3'         10.2801    55.9265    38.3523 H            1 UD1372   0.0000
    43 H4'         10.1136    55.5556    41.1911 H            1 UD1372   0.0000
    44 H5'         11.5844    57.6827    39.9791 H            1 UD1372   0.0000
    45 H6'1        11.7116    56.9847    42.7615 H            1 UD1372   0.0000
    46 H6'2        10.5205    57.9699    42.2346 H            1 UD1372   0.0000
    47 H8'1        11.6021    51.0379    36.2739 H            1 UD1372   0.0000
    48 H8'2        10.6645    52.3291    35.9269 H            1 UD1372   0.0000
    49 H8'3        12.2734    52.3916    35.6544 H            1 UD1372   0.0000
    50 H11         11.8178    54.4909    37.0175 H            1 UD1372   0.0000
    51 H12          8.6345    54.6344    38.3257 H            1 UD1372   0.0000
    52 H13          8.5246    56.8754    41.1408 H            1 UD1372   0.0000
    53 H6'         11.9889    59.4601    42.7713 H            1 UD1372   0.0000
    54 H15         21.7290    59.2106    43.5352 H            1 UD1372   0.0000
    55 H16         18.0145    57.7603    42.7611 H            1 UD1372   0.0000
    56 H17         18.4029    57.9666    40.4367 H            1 UD1372   0.0000
    57 H1B         20.9302    59.8127    39.0351 H            1 UD1372   0.0000
    58 H2B         22.1817    57.5628    39.4057 H            1 UD1372   0.0000
    59 H20         21.7976    59.0110    37.0649 H            1 UD1372   0.0000
    60 H3B         20.6347    56.0718    39.0052 H            1 UD1372   0.0000
    61 H4B         18.9690    57.0372    38.9723 H            1 UD1372   0.0000
    62 H23         22.0124    55.4145    37.3519 H            1 UD1372   0.0000
    63 H5B1        18.5049    56.3580    36.4405 H            1 UD1372   0.0000
    64 H5B2        17.6757    57.7056    36.8442 H            1 UD1372   0.0000
@<TRIPOS>BOND
     1    1    2       1
     2    1   10       1
     3    1   13       1
     4    2    3       1
     5    2    9       1
     6    3    4       1
     7    3   11       1
     8    4    5       1
     9    4   12       1
    10    5    6       1
    11    5   13       1
    12    6   14       1
    13    7    8       1
    14    7    9      am
    15    7   15       2
    16   10   37       1
    17   16   17       1
    18   16   21       1
    19   16   24       1
    20   17   18       1
    21   17   22       2
    22   18   19       1
    23   19   20       1
    24   19   23       2
    25   20   21       2
    26   24   25       1
    27   24   29       1
    28   25   26       1
    29   25   27       1
    30   27   28       1
    31   27   30       1
    32   28   29       1
    33   28   31       1
    34   31   32       1
    35   32   33       1
    36   33   34      ar
    37   33   35      ar
    38   33   36       1
    39   36   37       1
    40   37   38      ar
    41   37   39      ar
    42    1   40       1
    43    2   41       1
    44    3   42       1
    45    4   43       1
    46    5   44       1
    47    6   45       1
    48    6   46       1
    49    8   47       1
    50    8   48       1
    51    8   49       1
    52    9   50       1
    53   11   51       1
    54   12   52       1
    55   14   53       1
    56   18   54       1
    57   20   55       1
    58   21   56       1
    59   24   57       1
    60   25   58       1
    61   26   59       1
    62   27   60       1
    63   28   61       1
    64   30   62       1
    65   31   63       1
    66   31   64       1
@<TRIPOS>SUBSTRUCTURE
     1 UD1372      1 GROUP             4 A     UD1     0 **** UD1 A 372
