@<TRIPOS>MOLECULE
4txi_FAD_1_ligand
   84    89     1     0     0
SMALL
NO_CHARGES


@<TRIPOS>ATOM
     1 PA         -29.3400    -3.3910    20.4770 P.3          1 FAD701   0.0000
     2 O1A        -30.0900    -2.1840    19.9050 O.co2        1 FAD701   0.0000
     3 O2A        -29.6460    -4.6950    19.8150 O.co2        1 FAD701  -1.0000
     4 O5B        -27.7580    -3.1680    20.3580 O.3          1 FAD701   0.0000
     5 C5B        -26.9430    -4.3060    20.6450 C.3          1 FAD701   0.0000
     6 C4B        -25.5290    -3.8870    20.1890 C.3          1 FAD701   0.0000
     7 O4B        -24.7260    -4.8290    20.5870 O.3          1 FAD701   0.0000
     8 C3B        -25.4880    -3.9140    18.6420 C.3          1 FAD701   0.0000
     9 O3B        -24.8510    -2.8560    18.0960 O.3          1 FAD701   0.0000
    10 C2B        -24.6710    -5.2010    18.3240 C.3          1 FAD701   0.0000
    11 O2B        -23.9730    -5.0540    17.0100 O.3          1 FAD701   0.0000
    12 C1B        -23.8380    -5.2800    19.3080 C.3          1 FAD701   0.0000
    13 N9A        -23.4860    -6.6310    19.6130 N.pl3        1 FAD701   0.0000
    14 C8A        -24.3130    -7.6980    19.5440 C.2          1 FAD701   0.0000
    15 N7A        -23.6190    -8.8040    19.9500 N.2          1 FAD701   0.0000
    16 C5A        -22.3570    -8.4060    20.2870 C.ar         1 FAD701   0.0000
    17 C6A        -21.2620    -9.1190    20.7570 C.ar         1 FAD701   0.0000
    18 N6A        -21.0030   -10.4910    21.0730 N.pl3        1 FAD701   0.0000
    19 N1A        -20.1190    -8.4660    21.0020 N.ar         1 FAD701   0.0000
    20 C2A        -20.0260    -7.1160    20.7900 C.ar         1 FAD701   0.0000
    21 N3A        -21.1020    -6.4170    20.3400 N.ar         1 FAD701   0.0000
    22 C4A        -22.2680    -7.0710    20.0870 C.ar         1 FAD701   0.0000
    23 N1         -37.5410    -1.4520    18.7550 N.2          1 FAD701   0.0000
    24 C2         -38.7690    -0.7270    18.5440 C.2          1 FAD701   0.0000
    25 O2         -39.3020    -0.2170    19.4910 O.2          1 FAD701   0.0000
    26 N3         -39.3460    -0.5960    17.2150 N.pl3        1 FAD701   0.0000
    27 C4         -38.6670    -1.2040    16.1340 C.2          1 FAD701   0.0000
    28 O4         -39.1470    -1.1060    14.9950 O.2          1 FAD701   0.0000
    29 C4X        -37.4050    -1.9560    16.3260 C.2          1 FAD701   0.0000
    30 N5         -36.7330    -2.5940    15.2040 N.2          1 FAD701   0.0000
    31 C5X        -35.4930    -3.3270    15.4570 C.ar         1 FAD701   0.0000
    32 C6         -34.8080    -3.9580    14.3910 C.ar         1 FAD701   0.0000
    33 C7         -33.6070    -4.6840    14.6210 C.ar         1 FAD701   0.0000
    34 C7M        -33.0220    -5.2650    13.3220 C.3          1 FAD701   0.0000
    35 C8         -33.0870    -4.7780    15.9100 C.ar         1 FAD701   0.0000
    36 C8M        -31.7980    -5.5240    16.2360 C.3          1 FAD701   0.0000
    37 C9         -33.7640    -4.1490    16.9970 C.ar         1 FAD701   0.0000
    38 C9A        -34.9640    -3.4340    16.7820 C.ar         1 FAD701   0.0000
    39 N10        -35.6520    -2.7760    17.9220 N.pl3        1 FAD701   0.0000
    40 C10        -36.8620    -2.0540    17.6630 C.2          1 FAD701   0.0000
    41 C1'        -35.1120    -2.8680    19.3020 C.3          1 FAD701   0.0000
    42 C2'        -34.3340    -1.5910    19.5830 C.3          1 FAD701   0.0000
    43 O2'        -33.4520    -1.4680    18.5280 O.3          1 FAD701   0.0000
    44 C3'        -33.5820    -1.6390    20.9160 C.3          1 FAD701   0.0000
    45 O3'        -34.4920    -1.7060    21.9760 O.3          1 FAD701   0.0000
    46 C4'        -32.8200    -0.3660    21.1870 C.3          1 FAD701   0.0000
    47 O4'        -31.8660    -0.1680    20.1670 O.3          1 FAD701   0.0000
    48 C5'        -32.0700    -0.5140    22.5110 C.3          1 FAD701   0.0000
    49 O5'        -31.5390    -1.8310    22.5190 O.3          1 FAD701   0.0000
    50 P          -30.0720    -2.2960    22.9760 P.3          1 FAD701   0.0000
    51 O1P        -30.2220    -2.9540    24.3840 O.co2        1 FAD701   0.0000
    52 O2P        -29.0060    -1.2450    22.9680 O.co2        1 FAD701  -1.0000
    53 O3P        -29.7410    -3.5020    22.0210 O.3          1 FAD701   0.0000
    54 H5B1       -27.2579    -5.1054    20.1333 H            1 FAD701   0.0000
    55 H5B2       -26.9533    -4.5114    21.6236 H            1 FAD701   0.0000
    56 H4B        -25.2676    -2.9936    20.5545 H            1 FAD701   0.0000
    57 H3B        -26.4138    -3.9904    18.2717 H            1 FAD701   0.0000
    58 H5         -23.8797    -3.0695    17.9911 H            1 FAD701   0.0000
    59 H2B        -25.2717    -6.0004    18.3115 H            1 FAD701   0.0000
    60 H7         -23.0682    -4.6541    17.1561 H            1 FAD701   0.0000
    61 H1B        -23.0359    -4.6975    19.1762 H            1 FAD701   0.0000
    62 H8A        -25.2678    -7.6814    19.2472 H            1 FAD701   0.0000
    63 H6A1       -20.1012   -10.7656    21.4068 H            1 FAD701   0.0000
    64 H6A2       -21.7238   -11.1748    20.9599 H            1 FAD701   0.0000
    65 H2A        -19.1632    -6.6425    20.9669 H            1 FAD701   0.0000
    66 H13        -40.1971    -0.0912    17.0704 H            1 FAD701   0.0000
    67 H14        -35.1739    -3.8923    13.4627 H            1 FAD701   0.0000
    68 H7M1       -32.1815    -5.7655    13.5296 H            1 FAD701   0.0000
    69 H7M2       -33.6860    -5.8864    12.9061 H            1 FAD701   0.0000
    70 H7M3       -32.8182    -4.5207    12.6860 H            1 FAD701   0.0000
    71 H8M1       -31.6161    -5.4620    17.2174 H            1 FAD701   0.0000
    72 H8M2       -31.8935    -6.4845    15.9747 H            1 FAD701   0.0000
    73 H8M3       -31.0389    -5.1148    15.7298 H            1 FAD701   0.0000
    74 H21        -33.3856    -4.2147    17.9203 H            1 FAD701   0.0000
    75 H1'1       -34.5056    -3.6595    19.3779 H            1 FAD701   0.0000
    76 H1'2       -35.8631    -2.9596    19.9558 H            1 FAD701   0.0000
    77 H2'        -34.9619    -0.8127    19.5836 H            1 FAD701   0.0000
    78 H25        -32.6261    -0.9965    18.8372 H            1 FAD701   0.0000
    79 H3'        -32.9643    -2.4251    20.9383 H            1 FAD701   0.0000
    80 H27        -34.3354    -2.5449    22.4972 H            1 FAD701   0.0000
    81 H4'        -33.4479     0.4111    21.2296 H            1 FAD701   0.0000
    82 H29        -31.2316    -0.9408    20.1494 H            1 FAD701   0.0000
    83 H5'1       -32.6962    -0.3878    23.2804 H            1 FAD701   0.0000
    84 H5'2       -31.3317     0.1580    22.5684 H            1 FAD701   0.0000
@<TRIPOS>BOND
     1    1    2      ar
     2    1    3      ar
     3    1    4       1
     4    1   53       1
     5    4    5       1
     6    5    6       1
     7    6    7       1
     8    6    8       1
     9    7   12       1
    10    8    9       1
    11    8   10       1
    12   10   11       1
    13   10   12       1
    14   12   13       1
    15   13   14       1
    16   13   22       1
    17   14   15       2
    18   15   16       1
    19   16   17      ar
    20   16   22      ar
    21   17   18       1
    22   17   19      ar
    23   19   20      ar
    24   20   21      ar
    25   21   22      ar
    26   23   24       1
    27   23   40       2
    28   24   25       2
    29   24   26       1
    30   26   27       1
    31   27   28       2
    32   27   29       1
    33   29   30       2
    34   29   40       1
    35   30   31       1
    36   31   32      ar
    37   31   38      ar
    38   32   33      ar
    39   33   34       1
    40   33   35      ar
    41   35   36       1
    42   35   37      ar
    43   37   38      ar
    44   38   39       1
    45   39   40       1
    46   39   41       1
    47   41   42       1
    48   42   43       1
    49   42   44       1
    50   44   45       1
    51   44   46       1
    52   46   47       1
    53   46   48       1
    54   48   49       1
    55   49   50       1
    56   50   51      ar
    57   50   52      ar
    58   50   53       1
    59   48   84       1
    60    5   54       1
    61    5   55       1
    62    6   56       1
    63    8   57       1
    64    9   58       1
    65   10   59       1
    66   11   60       1
    67   12   61       1
    68   14   62       1
    69   18   63       1
    70   18   64       1
    71   20   65       1
    72   26   66       1
    73   32   67       1
    74   34   68       1
    75   34   69       1
    76   34   70       1
    77   36   71       1
    78   36   72       1
    79   36   73       1
    80   37   74       1
    81   41   75       1
    82   41   76       1
    83   42   77       1
    84   43   78       1
    85   44   79       1
    86   45   80       1
    87   46   81       1
    88   47   82       1
    89   48   83       1
@<TRIPOS>SUBSTRUCTURE
     1 FAD701      1 GROUP             4 A     FAD     0 **** FAD A 701
