@<TRIPOS>MOLECULE
1u30_GOX_1_ligand
   25    25     1     0     0
SMALL
NO_CHARGES


@<TRIPOS>ATOM
     1 C1           5.0370    14.4920    42.5780 C.2          1 GOX500   0.0000
     2 N1           5.6730    14.2830    43.7430 N.2          1 GOX500   0.0000
     3 C2           5.8710    14.3910    41.2840 C.3          1 GOX500   0.0000
     4 N5           3.6860    14.7380    42.6570 N.pl3        1 GOX500   0.0000
     5 O7           5.0770    14.3230    44.9140 O.3          1 GOX500   0.0000
     6 O2           7.1730    14.9800    41.2000 O.3          1 GOX500   0.0000
     7 C3           5.0070    14.7290    40.0480 C.3          1 GOX500   0.0000
     8 O3           5.7030    14.0940    38.9790 O.3          1 GOX500   0.0000
     9 C4           3.5580    14.1600    40.2450 C.3          1 GOX500   0.0000
    10 O4           2.7590    14.4190    39.0850 O.3          1 GOX500   0.0000
    11 C5           2.8930    14.9590    41.4340 C.3          1 GOX500   0.0000
    12 C6           1.4770    14.5870    41.8280 C.3          1 GOX500   0.0000
    13 O6           1.2300    13.1830    41.6700 O.3          1 GOX500   0.0000
    14 H1           6.0469    13.4110    41.1904 H            1 GOX500   0.0000
    15 H2           3.2383    14.7672    43.5507 H            1 GOX500   0.0000
    16 H3           5.6029    14.1590    45.7486 H            1 GOX500   0.0000
    17 H4           7.5565    14.8128    40.2917 H            1 GOX500   0.0000
    18 H5           4.9762    15.7182    39.9046 H            1 GOX500   0.0000
    19 H6           5.2157    14.2564    38.1210 H            1 GOX500   0.0000
    20 H7           3.5852    13.1808    40.4463 H            1 GOX500   0.0000
    21 H8           1.8396    14.0513    39.2247 H            1 GOX500   0.0000
    22 H9           2.9153    15.9340    41.2130 H            1 GOX500   0.0000
    23 H10          0.8369    15.0949    41.2515 H            1 GOX500   0.0000
    24 H11          1.3320    14.8351    42.7858 H            1 GOX500   0.0000
    25 H12          0.2644    13.0365    41.4551 H            1 GOX500   0.0000
@<TRIPOS>BOND
     1    1    2       2
     2    1    3       1
     3    1    4       1
     4    2    5       1
     5    3    6       1
     6    3    7       1
     7    4   11       1
     8    7    8       1
     9    7    9       1
    10    9   10       1
    11    9   11       1
    12   11   12       1
    13   12   13       1
    14    3   14       1
    15    4   15       1
    16    5   16       1
    17    6   17       1
    18    7   18       1
    19    8   19       1
    20    9   20       1
    21   10   21       1
    22   11   22       1
    23   12   23       1
    24   12   24       1
    25   13   25       1
@<TRIPOS>SUBSTRUCTURE
     1 GOX500      1 GROUP             4 A     GOX     0 **** GOX A 500
