@<TRIPOS>MOLECULE
4x5d_BE2_1_ligand
   16    16     1     0     0
SMALL
NO_CHARGES


@<TRIPOS>ATOM
     1 C           -0.1510    36.9020   -43.8450 C.2          1 BE2401   0.0000
     2 O1           1.0230    36.5910   -43.5180 O.co2        1 BE2401   0.0000
     3 O2          -0.8050    37.7640   -43.2120 O.co2        1 BE2401  -1.0000
     4 C1          -0.8090    36.2680   -45.0420 C.ar         1 BE2401   0.0000
     5 C2          -0.3970    34.9420   -45.6170 C.ar         1 BE2401   0.0000
     6 C3          -1.0670    34.4740   -46.7280 C.ar         1 BE2401   0.0000
     7 N2           0.6070    34.1670   -45.1150 N.pl3        1 BE2401   0.0000
     8 C4          -2.0970    35.2240   -47.2640 C.ar         1 BE2401   0.0000
     9 C5          -2.5000    36.4480   -46.7270 C.ar         1 BE2401   0.0000
    10 C6          -1.8540    36.9750   -45.6310 C.ar         1 BE2401   0.0000
    11 H1          -0.8101    33.6006   -47.1417 H            1 BE2401   0.0000
    12 H2           0.8287    33.2935   -45.5484 H            1 BE2401   0.0000
    13 H3           1.1213    34.4724   -44.3136 H            1 BE2401   0.0000
    14 H4          -2.5738    34.8750   -48.0708 H            1 BE2401   0.0000
    15 H5          -3.2626    36.9452   -47.1409 H            1 BE2401   0.0000
    16 H6          -2.1338    37.8605   -45.2602 H            1 BE2401   0.0000
@<TRIPOS>BOND
     1    1    2      ar
     2    1    3      ar
     3    1    4       1
     4    4    5      ar
     5    4   10      ar
     6    5    6      ar
     7    5    7       1
     8    6    8      ar
     9    8    9      ar
    10    9   10      ar
    11   10   16       1
    12    6   11       1
    13    7   12       1
    14    7   13       1
    15    8   14       1
    16    9   15       1
@<TRIPOS>SUBSTRUCTURE
     1 BE2401      1 GROUP             4 A     BE2     0 **** BE2 A 401
