@<TRIPOS>MOLECULE
4a1o_AMZ_2_ligand
   35    36     1     0     0
SMALL
NO_CHARGES


@<TRIPOS>ATOM
     1 O5          59.7580    78.2550    34.7530 O.2          1 AMZ1525   0.0000
     2 C6          59.2730    79.4000    35.2130 C.2          1 AMZ1525   0.0000
     3 N2          59.6250    79.9460    36.3740 N.am         1 AMZ1525   0.0000
     4 C3A         58.2500    80.2560    34.4880 C.2          1 AMZ1525   0.0000
     5 C7A         57.6430    79.9320    33.2290 C.2          1 AMZ1525   0.0000
     6 N3          57.8330    78.7630    32.4260 N.pl3        1 AMZ1525   0.0000
     7 N1          57.7220    81.4890    34.8820 N.2          1 AMZ1525   0.0000
     8 C5          56.8760    81.8650    33.9120 C.2          1 AMZ1525   0.0000
     9 N           56.8090    80.8970    32.8950 N.pl3        1 AMZ1525   0.0000
    10 C1          55.9840    80.9470    31.6610 C.3          1 AMZ1525   0.0000
    11 C2          54.5890    81.6870    31.7270 C.3          1 AMZ1525   0.0000
    12 C3          54.2730    82.0400    30.2740 C.3          1 AMZ1525   0.0000
    13 O2          53.9450    80.7020    29.7940 O.3          1 AMZ1525   0.0000
    14 O1          53.5410    80.8890    32.4190 O.3          1 AMZ1525   0.0000
    15 O           56.6690    81.8740    30.7140 O.3          1 AMZ1525   0.0000
    16 C           55.7250    82.4010    29.7340 C.3          1 AMZ1525   0.0000
    17 C4          56.0670    83.8660    29.5920 C.3          1 AMZ1525   0.0000
    18 O3          55.9360    84.5370    30.9070 O.3          1 AMZ1525   0.0000
    19 P           56.0240    86.0960    30.8730 P.3          1 AMZ1525   0.0000
    20 OP1         57.2250    86.4840    29.9640 O.co2        1 AMZ1525   0.0000
    21 O4          54.8180    86.6380    30.1820 O.co2        1 AMZ1525  -1.0000
    22 OP2         56.1980    86.5070    32.3250 O.co2        1 AMZ1525  -1.0000
    23 H1          59.2197    80.8137    36.6617 H            1 AMZ1525   0.0000
    24 H2          60.2948    79.4887    36.9589 H            1 AMZ1525   0.0000
    25 H3          57.3410    78.6653    31.5609 H            1 AMZ1525   0.0000
    26 H4          58.4578    78.0438    32.7299 H            1 AMZ1525   0.0000
    27 H5          56.3603    82.7218    33.9121 H            1 AMZ1525   0.0000
    28 H6          55.8860    80.0361    31.2603 H            1 AMZ1525   0.0000
    29 H7          54.7141    82.5402    32.2334 H            1 AMZ1525   0.0000
    30 H8          53.5700    82.7378    30.1369 H            1 AMZ1525   0.0000
    31 H9          52.9664    80.5352    29.9146 H            1 AMZ1525   0.0000
    32 H10         52.6837    81.4038    32.4311 H            1 AMZ1525   0.0000
    33 H11         55.8723    81.9431    28.8573 H            1 AMZ1525   0.0000
    34 H12         55.4422    84.2917    28.9375 H            1 AMZ1525   0.0000
    35 H13         57.0071    83.9580    29.2637 H            1 AMZ1525   0.0000
@<TRIPOS>BOND
     1    1    2       2
     2    2    3      am
     3    2    4       1
     4    4    5       2
     5    4    7       1
     6    5    6       1
     7    5    9       1
     8    7    8       2
     9    8    9       1
    10    9   10       1
    11   10   11       1
    12   10   15       1
    13   11   12       1
    14   11   14       1
    15   12   13       1
    16   12   16       1
    17   15   16       1
    18   16   17       1
    19   17   18       1
    20   18   19       1
    21   19   20      ar
    22   19   21      ar
    23   19   22      ar
    24    3   23       1
    25    3   24       1
    26    6   25       1
    27    6   26       1
    28    8   27       1
    29   10   28       1
    30   11   29       1
    31   12   30       1
    32   13   31       1
    33   14   32       1
    34   16   33       1
    35   17   34       1
    36   17   35       1
@<TRIPOS>SUBSTRUCTURE
     1 AMZ1525     1 GROUP             4 B     AMZ     0 **** AMZ B1525
