@<TRIPOS>MOLECULE
1i6l_TYM_1_ligand
   60    64     1     0     0
SMALL
NO_CHARGES


@<TRIPOS>ATOM
     1 P           50.9810    20.9900    40.3720 P.3          1 TYM350   0.0000
     2 O1P         51.2120    19.4940    40.3190 O.co2        1 TYM350   0.0000
     3 O2P         49.6510    21.6300    40.0920 O.co2        1 TYM350  -1.0000
     4 O5'         52.1760    21.8430    39.4790 O.3          1 TYM350   0.0000
     5 C5'         53.4910    21.4150    39.5670 C.3          1 TYM350   0.0000
     6 C4'         54.4420    22.5930    39.4350 C.3          1 TYM350   0.0000
     7 O4'         54.0930    23.3010    38.2250 O.3          1 TYM350   0.0000
     8 C1'         53.8980    24.6920    38.4540 C.3          1 TYM350   0.0000
     9 N9          52.8870    25.2170    37.5570 N.pl3        1 TYM350   0.0000
    10 C4          53.0620    26.3200    36.6980 C.ar         1 TYM350   0.0000
    11 N3          54.1830    27.0980    36.5500 N.ar         1 TYM350   0.0000
    12 C2          53.9770    28.0550    35.6530 C.ar         1 TYM350   0.0000
    13 N1          52.8810    28.2920    34.9330 N.ar         1 TYM350   0.0000
    14 C6          51.8100    27.4990    35.0700 C.ar         1 TYM350   0.0000
    15 N6          50.6940    27.7350    34.3520 N.pl3        1 TYM350   0.0000
    16 C5          51.8880    26.4480    36.0230 C.ar         1 TYM350   0.0000
    17 N7          50.9670    25.4790    36.4240 N.2          1 TYM350   0.0000
    18 C8          51.5880    24.7760    37.3170 C.2          1 TYM350   0.0000
    19 C2'         53.4380    24.7050    39.9840 C.3          1 TYM350   0.0000
    20 O2'         53.6210    26.0290    40.5420 O.3          1 TYM350   0.0000
    21 C3'         54.3620    23.6550    40.6090 C.3          1 TYM350   0.0000
    22 O3'         55.6740    24.1100    40.8330 O.3          1 TYM350   0.0000
    23 NH3         50.6030    21.3980    45.4330 N.3          1 TYM350   0.0000
    24 CA          51.6430    21.3360    44.3670 C.3          1 TYM350   0.0000
    25 CB          52.4140    20.0290    44.4520 C.3          1 TYM350   0.0000
    26 CG          53.2700    19.8610    45.7190 C.2          1 TYM350   0.0000
    27 CD2         54.4420    20.5420    46.0220 C.ar         1 TYM350   0.0000
    28 CE2         54.7850    20.0140    47.3050 C.ar         1 TYM350   0.0000
    29 CE3         55.2520    21.5140    45.4280 C.ar         1 TYM350   0.0000
    30 CD1         52.9100    18.9620    46.7180 C.2          1 TYM350   0.0000
    31 NE1         53.8730    19.0860    47.6640 N.pl3        1 TYM350   0.0000
    32 CZ2         55.9640    20.4740    47.9630 C.ar         1 TYM350   0.0000
    33 CZ3         56.3900    21.9690    46.0810 C.ar         1 TYM350   0.0000
    34 CH2         56.7550    21.4430    47.3440 C.ar         1 TYM350   0.0000
    35 C           50.9020    21.2150    43.0120 C.2          1 TYM350   0.0000
    36 O           49.7820    20.7330    42.8970 O.2          1 TYM350   0.0000
    37 OPP         51.5730    21.6050    41.9040 O.3          1 TYM350   0.0000
    38 H5'1        53.6740    20.7601    38.8338 H            1 TYM350   0.0000
    39 H5'2        53.6350    20.9730    40.4524 H            1 TYM350   0.0000
    40 H4'         55.3797    22.2536    39.3602 H            1 TYM350   0.0000
    41 H1'         54.7582    25.1896    38.3423 H            1 TYM350   0.0000
    42 H5          54.7433    28.6784    35.4977 H            1 TYM350   0.0000
    43 H6          49.8967    27.1406    34.4573 H            1 TYM350   0.0000
    44 H7          50.6633    28.5045    33.7140 H            1 TYM350   0.0000
    45 H8          51.1762    23.9952    37.7869 H            1 TYM350   0.0000
    46 H2'         52.4824    24.4213    40.0639 H            1 TYM350   0.0000
    47 H10         52.7887    26.5662    40.4055 H            1 TYM350   0.0000
    48 H3'         53.9632    23.2596    41.4364 H            1 TYM350   0.0000
    49 H12         56.1157    23.5299    41.5173 H            1 TYM350   0.0000
    50 HH31        51.0409    21.3367    46.3299 H            1 TYM350   0.0000
    51 HA          52.2503    22.1301    44.3910 H            1 TYM350   0.0000
    52 HB1         53.0201    19.9741    43.6585 H            1 TYM350   0.0000
    53 HB2         51.7551    19.2774    44.4208 H            1 TYM350   0.0000
    54 HE3         55.0113    21.8828    44.5302 H            1 TYM350   0.0000
    55 HD1         52.1144    18.3564    46.7346 H            1 TYM350   0.0000
    56 HE1         53.9036    18.5603    48.5141 H            1 TYM350   0.0000
    57 HZ2         56.2207    20.1066    48.8570 H            1 TYM350   0.0000
    58 HZ3         56.9568    22.6744    45.6555 H            1 TYM350   0.0000
    59 HH2         57.5857    21.7683    47.7958 H            1 TYM350   0.0000
    60 HH32        50.1055    22.2627    45.3634 H            1 TYM350   0.0000
@<TRIPOS>BOND
     1    1    2      ar
     2    1    3      ar
     3    1    4       1
     4    1   37       1
     5    4    5       1
     6    5    6       1
     7    6    7       1
     8    6   21       1
     9    7    8       1
    10    8    9       1
    11    8   19       1
    12    9   10       1
    13    9   18       1
    14   10   11      ar
    15   10   16      ar
    16   11   12      ar
    17   12   13      ar
    18   13   14      ar
    19   14   15       1
    20   14   16      ar
    21   16   17       1
    22   17   18       2
    23   19   20       1
    24   19   21       1
    25   21   22       1
    26   23   24       1
    27   24   25       1
    28   24   35       1
    29   25   26       1
    30   26   27       1
    31   26   30       2
    32   27   28      ar
    33   27   29      ar
    34   28   31       1
    35   28   32      ar
    36   29   33      ar
    37   30   31       1
    38   32   34      ar
    39   33   34      ar
    40   35   36       2
    41   35   37       1
    42   34   59       1
    43    5   38       1
    44    5   39       1
    45    6   40       1
    46    8   41       1
    47   12   42       1
    48   15   43       1
    49   15   44       1
    50   18   45       1
    51   19   46       1
    52   20   47       1
    53   21   48       1
    54   22   49       1
    55   23   60       1
    56   23   50       1
    57   24   51       1
    58   25   52       1
    59   25   53       1
    60   29   54       1
    61   30   55       1
    62   31   56       1
    63   32   57       1
    64   33   58       1
@<TRIPOS>SUBSTRUCTURE
     1 TYM350      1 GROUP             4 A     TYM     0 **** TYM A 350
