@<TRIPOS>MOLECULE
1z3w_IDC_1_ligand
   47    49     1     0     0
SMALL
NO_CHARGES


@<TRIPOS>ATOM
     1 C1A          3.9750     9.4380    23.4730 C.3          1 IDC600   0.0000
     2 C2A          5.0620     8.6900    22.7150 C.3          1 IDC600   0.0000
     3 C3A          5.0320     7.2200    23.0960 C.3          1 IDC600   0.0000
     4 C4A          5.1820     7.0730    24.6140 C.3          1 IDC600   0.0000
     5 C5A          4.1160     7.8920    25.3410 C.3          1 IDC600   0.0000
     6 C6A          4.3940     7.8950    26.8350 C.3          1 IDC600   0.0000
     7 O2A          4.8960     8.8660    21.3160 O.3          1 IDC600   0.0000
     8 O3A          6.0480     6.5230    22.3690 O.3          1 IDC600   0.0000
     9 O4A          5.0270     5.7160    25.0120 O.3          1 IDC600   0.0000
    10 O5A          4.1650     9.2310    24.8620 O.3          1 IDC600   0.0000
    11 O6A          5.7070     8.4100    27.0340 O.3          1 IDC600   0.0000
    12 C1B          1.5840    14.0820    23.2640 C.2          1 IDC600   0.0000
    13 C2B          1.8270    13.4460    24.5940 C.3          1 IDC600   0.0000
    14 C3B          3.0830    12.6080    24.4380 C.3          1 IDC600   0.0000
    15 C4B          2.8940    11.6170    23.2790 C.3          1 IDC600   0.0000
    16 C5B          2.7030    12.3070    21.9290 C.3          1 IDC600   0.0000
    17 C6B          1.9010    11.4640    20.9260 C.3          1 IDC600   0.0000
    18 O2B          2.0540    14.4230    25.6000 O.3          1 IDC600   0.0000
    19 O3B          3.3300    11.9490    25.6820 O.3          1 IDC600   0.0000
    20 O4B          4.0650    10.8210    23.1740 O.3          1 IDC600   0.0000
    21 N1B          1.9600    13.5510    22.1140 N.pl3        1 IDC600   0.0000
    22 O6B          0.7950    10.7580    21.4830 O.3          1 IDC600   0.0000
    23 N2B          0.9500    15.2310    23.0400 N.2          1 IDC600   0.0000
    24 C7B          0.9550    15.4000    21.7140 C.2          1 IDC600   0.0000
    25 C8B          1.5850    14.3660    21.1350 C.2          1 IDC600   0.0000
    26 H1A          3.0767     9.0927    23.2011 H            1 IDC600   0.0000
    27 H2A          5.9495     9.0677    22.9788 H            1 IDC600   0.0000
    28 H3A          4.1436     6.8453    22.8309 H            1 IDC600   0.0000
    29 H4A          6.0882     7.3950    24.8880 H            1 IDC600   0.0000
    30 H5A          3.2118     7.5026    25.1656 H            1 IDC600   0.0000
    31 H6A1         4.3364     6.9632    27.1933 H            1 IDC600   0.0000
    32 H6A2         3.7270     8.4742    27.3037 H            1 IDC600   0.0000
    33 H8           4.9530     9.8392    21.0934 H            1 IDC600   0.0000
    34 H9           5.6267     5.8122    21.8058 H            1 IDC600   0.0000
    35 H10          4.8525     5.1501    24.2062 H            1 IDC600   0.0000
    36 H6A          5.9154     8.4226    28.0120 H            1 IDC600   0.0000
    37 H2B          1.0531    12.8648    24.8454 H            1 IDC600   0.0000
    38 H3B          3.8533    13.2106    24.2295 H            1 IDC600   0.0000
    39 H4B          2.1071    11.0294    23.4675 H            1 IDC600   0.0000
    40 H5B          3.5995    12.5159    21.5382 H            1 IDC600   0.0000
    41 H6B1         2.5216    10.7954    20.5163 H            1 IDC600   0.0000
    42 H6B2         1.5530    12.0752    20.2151 H            1 IDC600   0.0000
    43 H18          2.8551    14.9705    25.3582 H            1 IDC600   0.0000
    44 H19          3.3182    10.9588    25.5428 H            1 IDC600   0.0000
    45 H6B          0.6405     9.9174    20.9638 H            1 IDC600   0.0000
    46 H7B          0.5520    16.1761    21.2289 H            1 IDC600   0.0000
    47 H8B          1.7416    14.2348    20.1561 H            1 IDC600   0.0000
@<TRIPOS>BOND
     1    1    2       1
     2    1   10       1
     3    1   20       1
     4    2    3       1
     5    2    7       1
     6    3    4       1
     7    3    8       1
     8    4    5       1
     9    4    9       1
    10    5    6       1
    11    5   10       1
    12    6   11       1
    13   12   13       1
    14   12   21       1
    15   12   23       2
    16   13   14       1
    17   13   18       1
    18   14   15       1
    19   14   19       1
    20   15   16       1
    21   15   20       1
    22   16   17       1
    23   16   21       1
    24   17   22       1
    25   21   25       1
    26   23   24       1
    27   24   25       2
    28    1   26       1
    29    2   27       1
    30    3   28       1
    31    4   29       1
    32    5   30       1
    33    6   31       1
    34    6   32       1
    35    7   33       1
    36    8   34       1
    37    9   35       1
    38   11   36       1
    39   13   37       1
    40   14   38       1
    41   15   39       1
    42   16   40       1
    43   17   41       1
    44   17   42       1
    45   18   43       1
    46   19   44       1
    47   22   45       1
    48   24   46       1
    49   25   47       1
@<TRIPOS>SUBSTRUCTURE
     1 IDC600      1 GROUP             4 A     IDC     0 **** IDC A 600
