@<TRIPOS>MOLECULE
1aj2_2PH_1_ligand
   29    30     1     0     0
SMALL
NO_CHARGES


@<TRIPOS>ATOM
     1 N1          41.3480     3.4140     6.7740 N.ar         1 2PH283   0.0000
     2 C2          42.0050     4.5320     6.9410 C.ar         1 2PH283   0.0000
     3 C3          42.6320     4.9630     8.2010 C.ar         1 2PH283   0.0000
     4 N4          42.3410     4.0470     9.2700 N.ar         1 2PH283   1.0000
     5 N5          41.3560     1.9750    10.1770 N.2          1 2PH283   0.0000
     6 C6          40.7760     0.8070     9.9050 C.2          1 2PH283   0.0000
     7 N6          40.5370    -0.0980    10.9010 N.pl3        1 2PH283   0.0000
     8 N7          40.3560     0.4620     8.6060 N.pl3        1 2PH283   0.0000
     9 C8          40.5790     1.3000     7.5250 C.2          1 2PH283   0.0000
    10 O8          40.3440     0.9330     6.3660 O.2          1 2PH283   0.0000
    11 C9          41.1470     2.5250     7.8080 C.ar         1 2PH283   0.0000
    12 C10         41.5910     2.8450     9.1520 C.ar         1 2PH283   0.0000
    13 C11         42.1240     5.4530     5.8120 C.3          1 2PH283   0.0000
    14 O4          43.0430     6.4830     6.2050 O.3          1 2PH283   0.0000
    15 P1          43.1700     7.8600     5.4350 P.3          1 2PH283   0.0000
    16 O1P         44.3590     8.5690     6.0270 O.co2        1 2PH283   0.0000
    17 O2P         43.0870     7.5320     3.9880 O.co2        1 2PH283  -1.0000
    18 O3P         41.8700     8.6030     5.8890 O.3          1 2PH283   0.0000
    19 P2          40.5240     8.8240     6.5760 P.3          1 2PH283   0.0000
    20 O4P         39.9510    10.1400     6.2650 O.co2        1 2PH283   0.0000
    21 O5P         40.7600     8.8790     8.0940 O.co2        1 2PH283  -1.0000
    22 O6P         39.5510     7.7330     6.3270 O.co2        1 2PH283  -1.0000
    23 H1          43.1891     5.7875     8.3006 H            1 2PH283   0.0000
    24 H2          40.1011    -0.9724    10.6880 H            1 2PH283   0.0000
    25 H3          40.7980     0.1143    11.8427 H            1 2PH283   0.0000
    26 H4          41.2321     5.8518     5.5987 H            1 2PH283   0.0000
    27 H5          42.4733     4.9692     5.0096 H            1 2PH283   0.0000
    28 H6          39.8857    -0.4083     8.4601 H            1 2PH283   0.0000
    29 H7          42.6973     4.2753    10.1760 H            1 2PH283   0.0000
@<TRIPOS>BOND
     1    1    2      ar
     2    1   11      ar
     3    2    3      ar
     4    2   13       1
     5    3    4      ar
     6    4   12      ar
     7    5    6       2
     8    5   12       1
     9    6    7       1
    10    6    8       1
    11    8    9       1
    12    9   10       2
    13    9   11       1
    14   11   12      ar
    15   13   14       1
    16   14   15       1
    17   15   16      ar
    18   15   17      ar
    19   15   18       1
    20   18   19       1
    21   19   20      ar
    22   19   21      ar
    23   19   22      ar
    24    3   23       1
    25    8   28       1
    26    7   24       1
    27    7   25       1
    28   13   26       1
    29   13   27       1
    30    4   29       1
@<TRIPOS>SUBSTRUCTURE
     1 2PH283      1 GROUP             4 A     2PH     0 **** 2PH A 283
