@<TRIPOS>MOLECULE
3dho_B2M_5_ligand
   38    40     1     0     0
SMALL
NO_CHARGES


@<TRIPOS>ATOM
     1 CAA         32.5530   110.6910    47.4960 C.3          1 B2M303   0.0000
     2 CAR         31.8930   111.9460    48.0660 C.ar         1 B2M303   0.0000
     3 CAK         32.5870   113.1460    48.0630 C.ar         1 B2M303   0.0000
     4 NAO         30.6490   111.8960    48.5670 N.ar         1 B2M303   0.0000
     5 CAY         30.0440   112.9910    49.0660 C.ar         1 B2M303   0.0000
     6 CAI         28.7520   112.8630    49.5630 C.ar         1 B2M303   0.0000
     7 CAH         28.1060   113.9740    50.0960 C.ar         1 B2M303   0.0000
     8 CAT         28.7460   115.2120    50.1200 C.ar         1 B2M303   0.0000
     9 BRAF        27.8380   116.7190    50.8280 Br           1 B2M303   0.0000
    10 CAM         30.0410   115.3440    49.6200 C.ar         1 B2M303   0.0000
    11 CAZ         30.7020   114.2310    49.0880 C.ar         1 B2M303   0.0000
    12 CAX         31.9990   114.3080    48.5570 C.ar         1 B2M303   0.0000
    13 CAQ         32.8840   115.5650    48.5180 C.2          1 B2M303   0.0000
    14 OAB         33.5570   115.8360    47.5210 O.2          1 B2M303   0.0000
    15 NAP         32.9090   116.2730    49.6450 N.am         1 B2M303   0.0000
    16 NAN         33.5970   117.2850    49.7550 N.2          1 B2M303   0.0000
    17 CAG         33.6530   118.0000    50.8710 C.2          1 B2M303   0.0000
    18 CAW         32.9000   117.7990    52.0350 C.ar         1 B2M303   0.0000
    19 CAL         32.5770   118.9800    52.6930 C.ar         1 B2M303   0.0000
    20 CAS         31.8000   118.9720    53.8400 C.ar         1 B2M303   0.0000
    21 CLAD        31.4340   120.4390    54.6350 Cl           1 B2M303   0.0000
    22 CAJ         31.3290   117.7870    54.3590 C.ar         1 B2M303   0.0000
    23 CAU         31.6280   116.5960    53.7190 C.ar         1 B2M303   0.0000
    24 CLAE        30.9880   115.1670    54.4560 Cl           1 B2M303   0.0000
    25 CAV         32.4090   116.5850    52.5520 C.ar         1 B2M303   0.0000
    26 OAC         32.6850   115.3910    51.9570 O.3          1 B2M303   0.0000
    27 HAA1        31.9229   109.9184    47.5737 H            1 B2M303   0.0000
    28 HAA2        32.7792   110.8412    46.5336 H            1 B2M303   0.0000
    29 HAA3        33.3888   110.4922    48.0077 H            1 B2M303   0.0000
    30 HAK         33.5192   113.1777    47.7025 H            1 B2M303   0.0000
    31 HAI         28.2893   111.9769    49.5375 H            1 B2M303   0.0000
    32 HAH         27.1801   113.8841    50.4628 H            1 B2M303   0.0000
    33 HAM         30.4972   116.2336    49.6415 H            1 B2M303   0.0000
    34 HAP         32.3541   115.9738    50.4213 H            1 B2M303   0.0000
    35 HAG         34.3004   118.7621    50.8825 H            1 B2M303   0.0000
    36 HAL         32.9113   119.8507    52.3322 H            1 B2M303   0.0000
    37 HAJ         30.7753   117.7864    55.1917 H            1 B2M303   0.0000
    38 HAC         32.3234   114.5434    52.3453 H            1 B2M303   0.0000
@<TRIPOS>BOND
     1    1    2       1
     2    2    3      ar
     3    2    4      ar
     4    3   12      ar
     5    4    5      ar
     6    5    6      ar
     7    5   11      ar
     8    6    7      ar
     9    7    8      ar
    10    8    9       1
    11    8   10      ar
    12   10   11      ar
    13   11   12      ar
    14   12   13       1
    15   13   14       2
    16   13   15      am
    17   15   16       1
    18   16   17       2
    19   17   18       1
    20   18   19      ar
    21   18   25      ar
    22   19   20      ar
    23   20   21       1
    24   20   22      ar
    25   22   23      ar
    26   23   24       1
    27   23   25      ar
    28   25   26       1
    29    1   27       1
    30    1   28       1
    31    1   29       1
    32    3   30       1
    33    6   31       1
    34    7   32       1
    35   10   33       1
    36   15   34       1
    37   17   35       1
    38   19   36       1
    39   22   37       1
    40   26   38       1
@<TRIPOS>SUBSTRUCTURE
     1 B2M303      1 GROUP             4 E     B2M     0 **** B2M E 303
