@<TRIPOS>MOLECULE
2fsn_ADP_2_ligand
   42    44     1     0     0
SMALL
NO_CHARGES


@<TRIPOS>ATOM
     1 PB          21.5180    13.0810    51.5290 P.3          1 ADP328   0.0000
     2 O1B         20.4930    12.3220    52.2530 O.co2        1 ADP328   0.0000
     3 O2B         22.9250    12.4670    51.6890 O.co2        1 ADP328  -1.0000
     4 O3B         21.6130    14.4670    52.1530 O.co2        1 ADP328  -1.0000
     5 PA          21.9840    12.8610    48.8610 P.3          1 ADP328   0.0000
     6 O1A         23.4430    12.8490    49.1700 O.co2        1 ADP328   0.0000
     7 O2A         21.3420    11.4820    48.7100 O.co2        1 ADP328  -1.0000
     8 O3A         21.0930    13.4280    50.0510 O.3          1 ADP328   0.0000
     9 O5'         21.7190    13.8250    47.6010 O.3          1 ADP328   0.0000
    10 C5'         20.7820    14.8210    47.9040 C.3          1 ADP328   0.0000
    11 C4'         20.2740    15.5840    46.7190 C.3          1 ADP328   0.0000
    12 O4'         21.1270    15.5670    45.6060 O.3          1 ADP328   0.0000
    13 C3'         18.9400    15.0100    46.2630 C.3          1 ADP328   0.0000
    14 O3'         17.8660    15.4220    47.0290 O.3          1 ADP328   0.0000
    15 C2'         18.8120    15.6190    44.9120 C.3          1 ADP328   0.0000
    16 O2'         18.2270    16.8890    45.0260 O.3          1 ADP328   0.0000
    17 C1'         20.2670    15.6840    44.4610 C.3          1 ADP328   0.0000
    18 N9          20.3820    14.5590    43.5030 N.pl3        1 ADP328   0.0000
    19 C8          20.5710    13.2550    43.8110 C.2          1 ADP328   0.0000
    20 N7          20.6310    12.5610    42.6900 N.2          1 ADP328   0.0000
    21 C5          20.4650    13.3860    41.6400 C.2          1 ADP328   0.0000
    22 C6          20.4100    13.1380    40.2510 C.3          1 ADP328   0.0000
    23 N6          19.6880    12.0670    39.8990 N.4          1 ADP328   1.0000
    24 N1          20.2510    14.2180    39.4110 N.pl3        1 ADP328   0.0000
    25 C2          20.0780    15.4870    39.9480 C.2          1 ADP328   0.0000
    26 N3          20.0970    15.7120    41.3210 N.2          1 ADP328   0.0000
    27 C4          20.2820    14.6560    42.1520 C.2          1 ADP328   0.0000
    28 H5'1        21.2100    15.4705    48.5325 H            1 ADP328   0.0000
    29 H5'2        20.0010    14.3875    48.3535 H            1 ADP328   0.0000
    30 H4'         20.1314    16.5351    46.9932 H            1 ADP328   0.0000
    31 H3'         18.9788    14.0124    46.2054 H            1 ADP328   0.0000
    32 H5          17.0427    15.4480    46.4620 H            1 ADP328   0.0000
    33 H2'         18.2760    15.0322    44.3051 H            1 ADP328   0.0000
    34 H7          18.1407    17.2990    44.1180 H            1 ADP328   0.0000
    35 H1'         20.4400    16.5501    43.9919 H            1 ADP328   0.0000
    36 H9          20.6518    12.8796    44.7343 H            1 ADP328   0.0000
    37 H10         21.3439    12.8437    40.0481 H            1 ADP328   0.0000
    38 H11         19.7032    11.9671    38.9041 H            1 ADP328   0.0000
    39 H12         20.0773    11.2488    40.3222 H            1 ADP328   0.0000
    40 H13         20.2601    14.0890    38.4194 H            1 ADP328   0.0000
    41 H14         19.9358    16.2607    39.3306 H            1 ADP328   0.0000
    42 H15         18.7442    12.1851    40.2078 H            1 ADP328   0.0000
@<TRIPOS>BOND
     1    1    2      ar
     2    1    3      ar
     3    1    4      ar
     4    1    8       1
     5    5    6      ar
     6    5    7      ar
     7    5    8       1
     8    5    9       1
     9    9   10       1
    10   10   11       1
    11   11   12       1
    12   11   13       1
    13   12   17       1
    14   13   14       1
    15   13   15       1
    16   15   16       1
    17   15   17       1
    18   17   18       1
    19   18   19       1
    20   18   27       1
    21   19   20       2
    22   20   21       1
    23   21   22       1
    24   21   27       2
    25   22   23       1
    26   22   24       1
    27   24   25       1
    28   25   26       2
    29   26   27       1
    30   25   41       1
    31   24   40       1
    32   23   39       1
    33   10   28       1
    34   10   29       1
    35   11   30       1
    36   13   31       1
    37   14   32       1
    38   15   33       1
    39   16   34       1
    40   17   35       1
    41   19   36       1
    42   22   37       1
    43   23   38       1
    44   23   42       1
@<TRIPOS>SUBSTRUCTURE
     1 ADP328      1 GROUP             4 B     ADP     0 **** ADP B 328
