@<TRIPOS>MOLECULE
1mjt_ITU_2_ligand
   14    13     1     0     0
SMALL
NO_CHARGES


@<TRIPOS>ATOM
     1 C1           5.9820   111.8050    32.3940 C.3          1 ITU801   0.0000
     2 C2           7.1650   110.9570    32.1570 C.3          1 ITU801   0.0000
     3 S            7.9750   111.3170    30.6030 S.3          1 ITU801   0.0000
     4 C3           8.1680   109.7940    29.6640 C.2          1 ITU801   0.0000
     5 N1           7.7400   108.6390    30.1650 N.2          1 ITU801   0.0000
     6 N2           8.7390   109.8260    28.4690 N.pl3        1 ITU801   0.0000
     7 H1           5.5692   111.5633    33.2722 H            1 ITU801   0.0000
     8 H2           6.2583   112.7660    32.4088 H            1 ITU801   0.0000
     9 H3           5.3164   111.6607    31.6618 H            1 ITU801   0.0000
    10 H4           6.8763   109.9996    32.1527 H            1 ITU801   0.0000
    11 H5           7.8182   111.1048    32.8996 H            1 ITU801   0.0000
    12 H6           7.8493   107.7951    29.6398 H            1 ITU801   0.0000
    13 H7           8.8480   108.9818    27.9442 H            1 ITU801   0.0000
    14 H8           9.0610   110.6944    28.0918 H            1 ITU801   0.0000
@<TRIPOS>BOND
     1    1    2       1
     2    2    3       1
     3    3    4       1
     4    4    5       2
     5    4    6       1
     6    1    7       1
     7    1    8       1
     8    1    9       1
     9    2   10       1
    10    2   11       1
    11    6   13       1
    12    5   12       1
    13    6   14       1
@<TRIPOS>SUBSTRUCTURE
     1 ITU801      1 GROUP             4 B     ITU     0 **** ITU B 801
