@<TRIPOS>MOLECULE
./coach420/1khr/ligand.pdb
 132 135 0 0 0
SMALL
GASTEIGER

@<TRIPOS>ATOM
      1  N1A       -7.1810  -20.4420  -15.9230 N.ar  304  COA304     -0.2040
      2  C2A       -6.3670  -20.0670  -14.8880 C.ar  304  COA304      0.2016
      3  N3A       -5.5470  -20.8080  -14.2020 N.ar  304  COA304     -0.2048
      4  C4A       -5.5590  -22.0800  -14.6310 C.ar  304  COA304      0.1692
      5  C5A       -6.2990  -22.6430  -15.6440 C.ar  304  COA304      0.1518
      6  C6A       -7.1730  -21.7550  -16.3330 C.ar  304  COA304      0.1919
      7  N6A       -7.9660  -22.1150  -17.3400 N.pl3 304  COA304     -0.1054
      8  N7A       -5.9980  -23.9990  -15.7480 N.ar  304  COA304     -0.2193
      9  C8A       -5.0990  -24.2260  -14.8050 C.ar  304  COA304      0.1816
     10  N9A       -4.8050  -23.0960  -14.1080 N.ar  304  COA304     -0.2693
     11  C1B       -3.9210  -22.7990  -13.0090 C.3   304  COA304      0.2408
     12  C2B       -3.9020  -23.8560  -11.9350 C.3   304  COA304      0.2310
     13  O2B       -4.9730  -23.6570  -10.9860 O.3   304  COA304     -0.2156
     14  C3B       -2.5200  -23.6880  -11.2650 C.3   304  COA304      0.1904
     15  O3B       -2.4770  -22.7390  -10.1580 O.3   304  COA304     -0.2674
     16  P3B       -1.1090  -22.4680   -9.3520 P.3   304  COA304      0.5327
     17  O7A       -0.0790  -21.9840  -10.3140 O.2   304  COA304     -0.2224
     18  O8A       -0.7680  -23.6940   -8.5970 O.3   304  COA304     -0.1145
     19  O9A       -1.3350  -21.4080   -8.3390 O.3   304  COA304     -0.1145
     20  C4B       -1.6800  -23.2730  -12.5020 C.3   304  COA304      0.1775
     21  O4B       -2.6170  -22.7480  -13.4810 O.3   304  COA304     -0.3307
     22  C5B       -0.8840  -24.3730  -13.1730 C.3   304  COA304      0.1812
     23  O5B       -1.5940  -25.0380  -14.2640 O.3   304  COA304     -0.3112
     24  P1A       -1.5090  -26.6550  -14.3430 P.3   304  COA304      0.2189
     25  O1A       -2.8510  -27.2710  -14.3280 O.2   304  COA304     -0.5170
     26  O2A       -0.6800  -27.1780  -13.2340 O.3   304  COA304     -0.4371
     27  O3A       -0.8030  -26.9450  -15.7160 O.3   304  COA304     -0.2703
     28  P2A       -1.2750  -27.8040  -17.0450 P.3   304  COA304      0.2188
     29  O4A       -1.7810  -29.1480  -16.7060 O.3   304  COA304     -0.4371
     30  O5A       -0.2190  -27.8670  -18.0750 O.2   304  COA304     -0.5170
     31  O6A       -2.4810  -26.8390  -17.4930 O.3   304  COA304     -0.3138
     32  CBP       -4.5500  -27.3360  -18.9120 C.3   304  COA304      0.0645
     33  CCP       -3.8220  -27.5140  -17.5600 C.3   304  COA304      0.1519
     34  CDP       -4.7400  -25.8600  -19.2160 C.3   304  COA304      0.0056
     35  CEP       -3.8120  -27.9860  -20.0820 C.3   304  COA304      0.0056
     36  CAP       -5.9640  -28.0000  -18.7750 C.3   304  COA304      0.2312
     37  OAP       -6.6790  -27.4540  -17.6500 O.3   304  COA304     -0.2131
     38  C9P       -6.8350  -27.7070  -20.0170 C.2   304  COA304      0.2719
     39  O9P       -7.0360  -26.5390  -20.4080 O.2   304  COA304     -0.2706
     40  N8P       -7.3850  -28.7240  -20.6520 N.am  304  COA304     -0.2028
     41  C7P       -8.2380  -28.5470  -21.8330 C.3   304  COA304      0.1248
     42  C6P       -8.7310  -29.8690  -22.4530 C.3   304  COA304      0.1102
     43  C5P       -9.3680  -29.5530  -23.7920 C.2   304  COA304      0.2432
     44  O5P       -9.9950  -28.5120  -23.9630 O.2   304  COA304     -0.2733
     45  N4P       -9.2820  -30.3360  -24.8140 N.am  304  COA304     -0.2044
     46  C3P       -9.9610  -29.8310  -26.0150 C.3   304  COA304      0.1276
     47  C2P       -8.9890  -29.6740  -27.1310 C.3   304  COA304      0.0920
     48  S1P       -8.7210  -31.3860  -27.7320 S.3   304  COA304     -0.0802
     49  C10      -11.0070  -38.9010  -30.5350 C.ar  403  VIR403      0.2135
     50  C12      -10.4290  -40.8960  -31.0910 C.ar  403  VIR403      0.2048
     51  C13      -11.6930  -37.6170  -30.7200 C.3   403  VIR403      0.1496
     52  C14      -11.1600  -36.5970  -29.8140 C.2   403  VIR403      0.1629
     53  C16       -9.9360  -35.8590  -30.2530 C.3   403  VIR403      0.1024
     54  C17       -9.2330  -35.1970  -29.1010 C.3   403  VIR403      0.1810
     55  C19       -7.9700  -35.8850  -28.6710 C.2   403  VIR403      0.0023
     56  C2        -7.2680  -40.8780  -25.8530 C.3   403  VIR403      0.0019
     57  C20       -7.6260  -36.1230  -27.4410 C.2   403  VIR403     -0.0239
     58  C21       -8.4650  -35.7130  -26.2570 C.3   403  VIR403      0.0308
     59  C22       -6.3840  -36.8390  -27.2570 C.2   403  VIR403     -0.0073
     60  C23       -5.7480  -36.9140  -26.0470 C.2   403  VIR403     -0.0032
     61  C24       -4.4720  -37.7290  -25.8660 C.3   403  VIR403      0.1415
     62  C26       -3.8740  -39.9820  -26.4960 C.2   403  VIR403      0.2649
     63  C28       -4.5870  -41.3610  -26.1660 C.2   403  VIR403      0.0550
     64  C29       -4.0760  -42.2150  -25.6320 C.2   403  VIR403     -0.0181
     65  C3        -8.1820  -39.6740  -25.9040 C.3   403  VIR403      0.0234
     66  C30       -4.4420  -43.6160  -25.1060 C.3   403  VIR403      0.0623
     67  C31       -5.1080  -43.6020  -23.7110 C.3   403  VIR403      0.0084
     68  C32       -5.2990  -44.4180  -26.1210 C.3   403  VIR403      0.1731
     69  C33       -5.6860  -45.7310  -25.4610 C.3   403  VIR403      0.0405
     70  C34       -6.5360  -46.5930  -26.4020 C.3   403  VIR403      0.0037
     71  C35       -4.4240  -46.5280  -25.1220 C.3   403  VIR403      0.0037
     72  C37       -6.6260  -42.7590  -27.4230 C.2   403  VIR403      0.4180
     73  C4        -8.7970  -39.6650  -27.2830 C.3   403  VIR403      0.1155
     74  C6        -8.9810  -41.5220  -28.9890 C.2   403  VIR403      0.2858
     75  C8        -9.8720  -40.5960  -29.8580 C.ar  403  VIR403      0.1763
     76  N25       -4.6930  -39.1460  -25.8720 N.am  403  VIR403     -0.1968
     77  N5        -8.2840  -40.9000  -27.9650 N.am  403  VIR403     -0.2003
     78  N9       -10.2810  -39.3130  -29.5470 N.ar  403  VIR403     -0.2069
     79  O11      -11.1600  -39.8260  -31.5130 O.2   403  VIR403     -0.4346
     80  O15      -11.7190  -36.3750  -28.7330 O.2   403  VIR403     -0.2954
     81  O18       -8.8880  -33.8530  -29.5170 O.3   403  VIR403     -0.2178
     82  O27       -2.8600  -39.6070  -27.1370 O.2   403  VIR403     -0.2684
     83  O36       -6.5760  -43.6810  -26.3940 O.3   403  VIR403     -0.4444
     84  O38       -6.1300  -42.9040  -28.5190 O.2   403  VIR403     -0.2376
     85  O7        -8.9290  -42.7120  -29.2430 O.2   403  VIR403     -0.2666
     86  C2A      -11.5950   -8.1010  -19.4690 C.3   306  COA306      0.1371
     87  N3A      -10.8250   -7.2750  -20.1150 N.pl3 306  COA306     -0.2187
     88  C4A      -11.1770   -7.1780  -21.4360 C.ar  306  COA306      0.1467
     89  C5A      -12.1920   -7.8230  -22.1040 C.ar  306  COA306      0.1111
     90  C6A      -12.9790   -8.7130  -21.2860 C.3   306  COA306      0.1577
     91  N6A      -14.0030   -9.4240  -21.7550 N.3   306  COA306     -0.1244
     92  N7A      -12.1980   -7.4280  -23.4710 N.ar  306  COA306     -0.2254
     93  C8A      -11.1650   -6.5410  -23.5800 C.ar  306  COA306      0.1811
     94  N9A      -10.5560   -6.3930  -22.3680 N.ar  306  COA306     -0.2720
     95  C1B       -9.4330   -5.5980  -21.9190 C.3   306  COA306      0.2406
     96  C2B       -8.2260   -5.7300  -22.8090 C.3   306  COA306      0.2310
     97  O2B       -7.4730   -6.9200  -22.4910 O.3   306  COA306     -0.2156
     98  C3B       -7.4720   -4.4200  -22.5660 C.3   306  COA306      0.1904
     99  O3B       -6.4990   -4.4700  -21.4750 O.3   306  COA306     -0.2674
    100  P3B       -5.6030   -3.1900  -21.0680 P.3   306  COA306      0.5327
    101  O7A       -6.4680   -2.0750  -20.6110 O.3   306  COA306     -0.1145
    102  O8A       -4.8090   -2.7310  -22.2330 O.2   306  COA306     -0.2224
    103  O9A       -4.6720   -3.5470  -19.9700 O.3   306  COA306     -0.1145
    104  C4B       -8.6340   -3.4410  -22.3360 C.3   306  COA306      0.1775
    105  O4B       -9.7760   -4.2510  -21.9480 O.3   306  COA306     -0.3307
    106  C5B       -9.0680   -2.6170  -23.5490 C.3   306  COA306      0.1812
    107  O5B      -10.0140   -3.3210  -24.4130 O.3   306  COA306     -0.3112
    108  P1A      -10.1470   -2.8310  -25.9540 P.3   306  COA306      0.2189
    109  O1A      -10.2840   -3.9960  -26.8540 O.2   306  COA306     -0.5170
    110  O2A       -8.9580   -2.0510  -26.3630 O.3   306  COA306     -0.4371
    111  O3A      -11.4500   -1.9500  -25.9320 O.3   306  COA306     -0.2703
    112  P2A      -12.6600   -1.6810  -27.0470 P.3   306  COA306      0.2188
    113  O4A      -12.1620   -2.0480  -28.4010 O.2   306  COA306     -0.5170
    114  O5A      -12.9860   -0.2300  -27.0590 O.3   306  COA306     -0.4371
    115  O6A      -13.7690   -2.6550  -26.4010 O.3   306  COA306     -0.3138
    116  CBP      -15.1910   -4.7050  -27.0020 C.3   306  COA306      0.0645
    117  CCP      -13.7940   -4.0140  -27.0690 C.3   306  COA306      0.1519
    118  CDP      -15.6220   -4.9040  -25.5480 C.3   306  COA306      0.0056
    119  CEP      -16.2470   -3.8480  -27.6980 C.3   306  COA306      0.0056
    120  CAP      -15.1590   -6.1170  -27.7110 C.3   306  COA306      0.2312
    121  OAP      -14.1750   -6.9750  -27.0930 O.3   306  COA306     -0.2131
    122  C9P      -16.5480   -6.8530  -27.6170 C.2   306  COA306      0.2719
    123  O9P      -16.8480   -7.5200  -26.6080 O.2   306  COA306     -0.2706
    124  N8P      -17.4030   -6.7480  -28.6480 N.am  306  COA306     -0.2028
    125  C7P      -18.7560   -7.4180  -28.6560 C.3   306  COA306      0.1248
    126  C6P      -18.9370   -8.4830  -29.7740 C.3   306  COA306      0.1102
    127  C5P      -20.3540   -9.1440  -29.7320 C.2   306  COA306      0.2432
    128  O5P      -20.5300  -10.2240  -29.1540 O.2   306  COA306     -0.2733
    129  N4P      -21.3520   -8.4530  -30.3670 N.am  306  COA306     -0.2044
    130  C3P      -22.7920   -8.9300  -30.4370 C.3   306  COA306      0.1276
    131  C2P      -23.8120   -7.7730  -30.6370 C.3   306  COA306      0.0920
    132  S1P      -24.1920   -7.3600  -32.4340 S.3   306  COA306     -0.0802
@<TRIPOS>BOND
     1     1     6   ar
     2     1     2   ar
     3     2     3   ar
     4     3     4   ar
     5     4     5   ar
     6     4    10   ar
     7     5     6   ar
     8     5     8   ar
     9     6     7    1
    10     8     9   ar
    11     9    10   ar
    12    10    11    1
    13    11    21    1
    14    11    12    1
    15    12    14    1
    16    12    13    1
    17    14    20    1
    18    14    15    1
    19    15    16    1
    20    16    17    2
    21    16    18    1
    22    16    19    1
    23    20    21    1
    24    20    22    1
    25    22    23    1
    26    23    24    1
    27    24    27    1
    28    24    25    2
    29    24    26    1
    30    27    28    1
    31    28    30    2
    32    28    31    1
    33    28    29    1
    34    31    33    1
    35    32    35    1
    36    32    34    1
    37    32    36    1
    38    32    33    1
    39    36    38    1
    40    36    37    1
    41    38    40   am
    42    38    39    2
    43    40    41    1
    44    41    42    1
    45    42    43    1
    46    43    45   am
    47    43    44    2
    48    45    46    1
    49    46    47    1
    50    47    48    1
    51    49    79   ar
    52    49    51    1
    53    49    78   ar
    54    50    79   ar
    55    50    75   ar
    56    51    52    1
    57    52    53    1
    58    52    80    2
    59    53    54    1
    60    54    81    1
    61    54    55    1
    62    55    57    2
    63    56    65    1
    64    57    59    1
    65    57    58    1
    66    59    60    2
    67    60    61    1
    68    61    76    1
    69    62    82    2
    70    62    63    1
    71    62    76   am
    72    63    64    2
    73    64    66    1
    74    65    73    1
    75    66    68    1
    76    66    67    1
    77    68    83    1
    78    68    69    1
    79    69    70    1
    80    69    71    1
    81    72    84    2
    82    72    83    1
    83    73    77    1
    84    74    75    1
    85    74    85    2
    86    74    77   am
    87    75    78   ar
    88    86    87    1
    89    87    88    1
    90    88    94   ar
    91    88    89   ar
    92    89    92   ar
    93    89    90    1
    94    90    91    1
    95    92    93   ar
    96    93    94   ar
    97    94    95    1
    98    95    96    1
    99    95   105    1
   100    96    98    1
   101    96    97    1
   102    98   104    1
   103    98    99    1
   104    99   100    1
   105   100   102    2
   106   100   101    1
   107   100   103    1
   108   104   106    1
   109   104   105    1
   110   106   107    1
   111   107   108    1
   112   108   109    2
   113   108   110    1
   114   108   111    1
   115   111   112    1
   116   112   113    2
   117   112   114    1
   118   112   115    1
   119   115   117    1
   120   116   120    1
   121   116   119    1
   122   116   117    1
   123   116   118    1
   124   120   122    1
   125   120   121    1
   126   122   124   am
   127   122   123    2
   128   124   125    1
   129   125   126    1
   130   126   127    1
   131   127   129   am
   132   127   128    2
   133   129   130    1
   134   130   131    1
   135   131   132    1
