@<TRIPOS>MOLECULE
3fvl_BHK_2_ligand
   29    29     1     0     0
SMALL
NO_CHARGES


@<TRIPOS>ATOM
     1 CAH        -13.8900   -28.8680   -23.5270 C.ar         1 BHK311   0.0000
     2 CAI        -12.6600   -29.3320   -23.9820 C.ar         1 BHK311   0.0000
     3 CAJ        -12.5020   -29.6900   -25.3160 C.ar         1 BHK311   0.0000
     4 CAK        -13.5750   -29.5860   -26.1940 C.ar         1 BHK311   0.0000
     5 CAL        -14.8040   -29.1220   -25.7380 C.ar         1 BHK311   0.0000
     6 CAG        -14.9630   -28.7610   -24.4050 C.ar         1 BHK311   0.0000
     7 CAD        -16.3180   -28.2290   -23.9280 C.3          1 BHK311   0.0000
     8 CAB        -17.0190   -29.2170   -22.9930 C.3          1 BHK311   0.0000
     9 CAC        -16.2770   -29.2440   -21.6560 C.2          1 BHK311   0.0000
    10 OAN        -15.9820   -30.3660   -21.1880 O.co2        1 BHK311   0.0000
    11 OAM        -16.0110   -28.1380   -21.1380 O.co2        1 BHK311  -1.0000
    12 CAA        -18.4560   -28.7500   -22.7500 C.3          1 BHK311   0.0000
    13 CAE        -19.2230   -29.7730   -21.9090 C.2          1 BHK311   0.0000
    14 OAO        -19.3560   -30.9310   -22.3050 O.2          1 BHK311   0.0000
    15 CAF        -19.8240   -29.3400   -20.5710 C.3          1 BHK311   0.0000
    16 OAP        -21.1160   -29.9230   -20.3860 O.3          1 BHK311   0.0000
    17 HAH        -14.0027   -28.6110   -22.5672 H            1 BHK311   0.0000
    18 HAI        -11.8893   -29.4080   -23.3494 H            1 BHK311   0.0000
    19 HAJ        -11.6175   -30.0220   -25.6437 H            1 BHK311   0.0000
    20 HAK        -13.4629   -29.8449   -27.1534 H            1 BHK311   0.0000
    21 HAL        -15.5751   -29.0478   -26.3704 H            1 BHK311   0.0000
    22 HAD1       -16.9009   -28.0676   -24.7243 H            1 BHK311   0.0000
    23 HAD2       -16.1742   -27.3680   -23.4402 H            1 BHK311   0.0000
    24 HAB        -17.0211   -30.1301   -23.4007 H            1 BHK311   0.0000
    25 HAA1       -18.9174   -28.6365   -23.6299 H            1 BHK311   0.0000
    26 HAA2       -18.4393   -27.8745   -22.2670 H            1 BHK311   0.0000
    27 HAF1       -19.9081   -28.3437   -20.5558 H            1 BHK311   0.0000
    28 HAF2       -19.2214   -29.6350   -19.8295 H            1 BHK311   0.0000
    29 HAP        -21.5510   -30.0589   -21.2761 H            1 BHK311   0.0000
@<TRIPOS>BOND
     1    1    2      ar
     2    1    6      ar
     3    2    3      ar
     4    3    4      ar
     5    4    5      ar
     6    5    6      ar
     7    6    7       1
     8    7    8       1
     9    8    9       1
    10    8   12       1
    11    9   10      ar
    12    9   11      ar
    13   12   13       1
    14   13   14       2
    15   13   15       1
    16   15   16       1
    17    1   17       1
    18    2   18       1
    19    3   19       1
    20    4   20       1
    21    5   21       1
    22    7   22       1
    23    7   23       1
    24    8   24       1
    25   16   29       1
    26   12   25       1
    27   12   26       1
    28   15   27       1
    29   15   28       1
@<TRIPOS>SUBSTRUCTURE
     1 BHK311      1 GROUP             4 C     BHK     0 **** BHK C 311
