@<TRIPOS>MOLECULE
3gg2_UGA_3_ligand
   56    58     1     0     0
SMALL
NO_CHARGES


@<TRIPOS>ATOM
     1 C1'         42.7940    65.2710    60.3610 C.3          1 UGA2000   0.0000
     2 C2'         41.8400    65.9270    61.3930 C.3          1 UGA2000   0.0000
     3 O2'         40.7180    65.0960    61.6600 O.3          1 UGA2000   0.0000
     4 C3'         41.3650    67.3060    60.9580 C.3          1 UGA2000   0.0000
     5 O3'         40.5980    67.9010    62.0020 O.3          1 UGA2000   0.0000
     6 C4'         42.6170    68.0890    60.6510 C.3          1 UGA2000   0.0000
     7 O4'         42.3490    69.4190    60.1780 O.3          1 UGA2000   0.0000
     8 C5'         43.4510    67.3980    59.5810 C.3          1 UGA2000   0.0000
     9 O5'         43.9070    66.1310    60.0740 O.3          1 UGA2000   0.0000
    10 C6'         44.5900    68.3190    59.2610 C.2          1 UGA2000   0.0000
    11 O'P         45.5020    68.4910    60.0920 O.co2        1 UGA2000   0.0000
    12 O'Q         44.5720    68.9060    58.1550 O.co2        1 UGA2000  -1.0000
    13 PB          42.5110    63.6540    58.3080 P.3          1 UGA2000   0.0000
    14 O1B         43.8610    63.1250    58.7060 O.co2        1 UGA2000   0.0000
    15 O2B         42.2230    64.0470    56.8890 O.co2        1 UGA2000  -1.0000
    16 O3B         42.0590    64.9630    59.1880 O.3          1 UGA2000   0.0000
    17 O3A         41.4240    62.5270    58.5530 O.3          1 UGA2000   0.0000
    18 PA          40.7840    61.8340    59.8240 P.3          1 UGA2000   0.0000
    19 O1A         39.3300    61.5640    59.4730 O.co2        1 UGA2000   0.0000
    20 O2A         41.0810    62.5840    61.0720 O.co2        1 UGA2000  -1.0000
    21 O5D         41.4510    60.3850    59.7900 O.3          1 UGA2000   0.0000
    22 C5D         42.8300    60.2560    60.2520 C.3          1 UGA2000   0.0000
    23 C4D         43.0900    58.7660    60.3480 C.3          1 UGA2000   0.0000
    24 O4D         42.5980    58.1760    61.5330 O.3          1 UGA2000   0.0000
    25 C3D         42.5110    57.9390    59.2040 C.3          1 UGA2000   0.0000
    26 O3D         43.4910    56.9510    58.8630 O.3          1 UGA2000   0.0000
    27 C2D         41.3170    57.2480    59.8140 C.3          1 UGA2000   0.0000
    28 O2D         40.9270    56.0450    59.1470 O.3          1 UGA2000   0.0000
    29 C1D         41.8460    56.9940    61.2250 C.3          1 UGA2000   0.0000
    30 N1          40.8000    56.9540    62.2300 N.pl3        1 UGA2000   0.0000
    31 C6          39.9740    58.0420    62.3700 C.2          1 UGA2000   0.0000
    32 C2          40.6660    55.8980    63.0680 C.2          1 UGA2000   0.0000
    33 O2          41.4050    54.9020    62.9760 O.2          1 UGA2000   0.0000
    34 N3          39.7160    55.8920    64.0130 N.pl3        1 UGA2000   0.0000
    35 C4          38.9010    56.9490    64.1860 C.2          1 UGA2000   0.0000
    36 O4          38.0540    56.9020    65.1020 O.2          1 UGA2000   0.0000
    37 C5          38.9880    58.0640    63.3590 C.2          1 UGA2000   0.0000
    38 H1'         43.1437    64.4184    60.7494 H            1 UGA2000   0.0000
    39 H2'         42.3469    66.0364    62.2480 H            1 UGA2000   0.0000
    40 H3          40.9797    64.1371    61.5501 H            1 UGA2000   0.0000
    41 H3'         40.8063    67.2256    60.1325 H            1 UGA2000   0.0000
    42 H5          41.2025    68.4229    62.6038 H            1 UGA2000   0.0000
    43 H4'         43.1633    68.1536    61.4861 H            1 UGA2000   0.0000
    44 H7          41.8082    69.3715    59.3382 H            1 UGA2000   0.0000
    45 H5'         42.8944    67.2575    58.7622 H            1 UGA2000   0.0000
    46 H5D1        42.9401    60.6879    61.1472 H            1 UGA2000   0.0000
    47 H5D2        43.4580    60.6785    59.5985 H            1 UGA2000   0.0000
    48 H4D         44.0813    58.6350    60.3388 H            1 UGA2000   0.0000
    49 H3D         42.2584    58.5056    58.4197 H            1 UGA2000   0.0000
    50 H13         43.3364    56.1264    59.4072 H            1 UGA2000   0.0000
    51 H2D         40.5430    57.8801    59.8516 H            1 UGA2000   0.0000
    52 H15         41.4095    55.2681    59.5515 H            1 UGA2000   0.0000
    53 H1D         42.4193    56.1754    61.2597 H            1 UGA2000   0.0000
    54 H17         40.0794    58.8259    61.7581 H            1 UGA2000   0.0000
    55 H18         39.6108    55.0888    64.5994 H            1 UGA2000   0.0000
    56 H19         38.3731    58.8451    63.4675 H            1 UGA2000   0.0000
@<TRIPOS>BOND
     1    1    2       1
     2    1    9       1
     3    1   16       1
     4    2    3       1
     5    2    4       1
     6    4    5       1
     7    4    6       1
     8    6    7       1
     9    6    8       1
    10    8    9       1
    11    8   10       1
    12   10   11      ar
    13   10   12      ar
    14   13   14      ar
    15   13   15      ar
    16   13   16       1
    17   13   17       1
    18   17   18       1
    19   18   19      ar
    20   18   20      ar
    21   18   21       1
    22   21   22       1
    23   22   23       1
    24   23   24       1
    25   23   25       1
    26   24   29       1
    27   25   26       1
    28   25   27       1
    29   27   28       1
    30   27   29       1
    31   29   30       1
    32   30   31       1
    33   30   32       1
    34   31   37       2
    35   32   33       2
    36   32   34       1
    37   34   35       1
    38   35   36       2
    39   35   37       1
    40    1   38       1
    41    2   39       1
    42    3   40       1
    43    4   41       1
    44    5   42       1
    45    6   43       1
    46    7   44       1
    47    8   45       1
    48   37   56       1
    49   34   55       1
    50   31   54       1
    51   22   46       1
    52   22   47       1
    53   23   48       1
    54   25   49       1
    55   26   50       1
    56   27   51       1
    57   28   52       1
    58   29   53       1
@<TRIPOS>SUBSTRUCTURE
     1 UGA2000     1 GROUP             4 B     UGA     0 **** UGA B2000
