@<TRIPOS>MOLECULE
3ulk_NDP_1_ligand
   73    77     1     0     0
SMALL
NO_CHARGES


@<TRIPOS>ATOM
     1 PA           6.6120    45.5940    65.0180 P.3          1 NDP492   0.0000
     2 O1A          6.7260    46.9240    64.3850 O.co2        1 NDP492   0.0000
     3 O2A          5.2700    45.3810    65.6030 O.co2        1 NDP492  -1.0000
     4 O5B          6.9880    44.4040    64.0010 O.3          1 NDP492   0.0000
     5 C5B          6.3060    44.2940    62.7870 C.3          1 NDP492   0.0000
     6 C4B          6.9010    43.1810    61.9470 C.3          1 NDP492   0.0000
     7 O4B          7.0260    41.9660    62.6680 O.3          1 NDP492   0.0000
     8 C3B          5.9750    42.9270    60.7690 C.3          1 NDP492   0.0000
     9 O3B          6.7610    42.9710    59.6070 O.3          1 NDP492   0.0000
    10 C2B          5.4700    41.5200    60.9730 C.3          1 NDP492   0.0000
    11 O2B          5.3910    40.8070    59.7620 O.3          1 NDP492   0.0000
    12 C1B          6.5360    40.9140    61.8610 C.3          1 NDP492   0.0000
    13 N9A          5.9870    39.7710    62.6030 N.pl3        1 NDP492   0.0000
    14 C8A          5.0430    39.7810    63.5900 C.2          1 NDP492   0.0000
    15 N7A          4.8410    38.5020    63.9900 N.2          1 NDP492   0.0000
    16 C5A          5.6410    37.6890    63.2650 C.ar         1 NDP492   0.0000
    17 C6A          5.8240    36.3140    63.2600 C.ar         1 NDP492   0.0000
    18 N6A          5.0140    35.5320    63.9750 N.pl3        1 NDP492   0.0000
    19 N1A          6.7310    35.7610    62.3790 N.ar         1 NDP492   0.0000
    20 C2A          7.4530    36.5630    61.5180 C.ar         1 NDP492   0.0000
    21 N3A          7.2620    37.9260    61.5250 N.ar         1 NDP492   0.0000
    22 C4A          6.3690    38.4740    62.3890 C.ar         1 NDP492   0.0000
    23 O3           7.8080    45.4100    66.0770 O.3          1 NDP492   0.0000
    24 PN           8.5380    46.6410    66.7990 P.3          1 NDP492   0.0000
    25 O1N          9.3900    47.3390    65.7990 O.co2        1 NDP492   0.0000
    26 O2N          7.5750    47.4230    67.6090 O.co2        1 NDP492  -1.0000
    27 O5D          9.4560    45.7970    67.8150 O.3          1 NDP492   0.0000
    28 C5D         10.5380    45.0230    67.3500 C.3          1 NDP492   0.0000
    29 C4D         11.5210    44.7960    68.4920 C.3          1 NDP492   0.0000
    30 O4D         12.1590    46.0030    68.8850 O.3          1 NDP492   0.0000
    31 C3D         10.7840    44.2530    69.7140 C.3          1 NDP492   0.0000
    32 O3D         11.5420    43.2170    70.2940 O.3          1 NDP492   0.0000
    33 C2D         10.7420    45.4310    70.6490 C.3          1 NDP492   0.0000
    34 O2D         10.7070    44.9790    71.9770 O.3          1 NDP492   0.0000
    35 C1D         12.0590    46.0960    70.2910 C.3          1 NDP492   0.0000
    36 N1N         12.1260    47.4910    70.7210 N.ar         1 NDP492   1.0000
    37 C2N         11.0370    48.2840    70.5660 C.ar         1 NDP492   0.0000
    38 C3N         11.0740    49.6250    70.9140 C.ar         1 NDP492   0.0000
    39 C7N          9.8450    50.4440    70.7040 C.2          1 NDP492   0.0000
    40 O7N          9.7510    51.6920    71.3480 O.2          1 NDP492   0.0000
    41 N7N          8.9000    49.9670    69.8910 N.am         1 NDP492   0.0000
    42 C4N         12.3160    50.2830    71.4680 C.ar         1 NDP492   0.0000
    43 C5N         13.4460    49.3070    71.5920 C.ar         1 NDP492   0.0000
    44 C6N         13.3070    47.9760    71.2140 C.ar         1 NDP492   0.0000
    45 P2B          4.3150    41.1880    58.6180 P.3          1 NDP492   0.0000
    46 O1X          4.1820    39.9840    57.7240 O.co2        1 NDP492   0.0000
    47 O2X          4.8270    42.3460    57.8230 O.co2        1 NDP492  -1.0000
    48 O3X          2.9750    41.5980    59.1930 O.co2        1 NDP492  -1.0000
    49 H5B1         6.3785    45.1579    62.2887 H            1 NDP492   0.0000
    50 H5B2         5.3431    44.0927    62.9668 H            1 NDP492   0.0000
    51 H4B          7.7995    43.4621    61.6098 H            1 NDP492   0.0000
    52 H3B          5.2262    43.5890    60.7360 H            1 NDP492   0.0000
    53 H5           6.2054    43.2938    58.8408 H            1 NDP492   0.0000
    54 H2B          4.5846    41.5263    61.4378 H            1 NDP492   0.0000
    55 H1B          7.2819    40.5861    61.2813 H            1 NDP492   0.0000
    56 H8A          4.5817    40.5903    63.9538 H            1 NDP492   0.0000
    57 H6A1         5.1452    34.5406    63.9720 H            1 NDP492   0.0000
    58 H6A2         4.2755    35.9370    64.5141 H            1 NDP492   0.0000
    59 H2A          8.1145    36.1538    60.8895 H            1 NDP492   0.0000
    60 H5D1        10.9977    45.5052    66.6042 H            1 NDP492   0.0000
    61 H5D2        10.2007    44.1416    67.0192 H            1 NDP492   0.0000
    62 H4D         12.2141    44.1351    68.2042 H            1 NDP492   0.0000
    63 H3D          9.8635    43.9426    69.4767 H            1 NDP492   0.0000
    64 H16         10.9284    42.5605    70.7328 H            1 NDP492   0.0000
    65 H2D          9.9659    46.0284    70.4472 H            1 NDP492   0.0000
    66 H18         10.2445    44.0932    72.0156 H            1 NDP492   0.0000
    67 H1D         12.8104    45.5857    70.7094 H            1 NDP492   0.0000
    68 H2N         10.1939    47.8950    70.1947 H            1 NDP492   0.0000
    69 H7N1         8.0653    50.4940    69.7312 H            1 NDP492   0.0000
    70 H7N2         9.0267    49.0826    69.4417 H            1 NDP492   0.0000
    71 H4N         12.3763    51.2488    71.7203 H            1 NDP492   0.0000
    72 H5N         14.3229    49.6209    71.9560 H            1 NDP492   0.0000
    73 H6N         14.0885    47.3586    71.3045 H            1 NDP492   0.0000
@<TRIPOS>BOND
     1    1    2      ar
     2    1    3      ar
     3    1    4       1
     4    1   23       1
     5    4    5       1
     6    5    6       1
     7    6    7       1
     8    6    8       1
     9    7   12       1
    10    8    9       1
    11    8   10       1
    12   10   11       1
    13   10   12       1
    14   11   45       1
    15   12   13       1
    16   13   14       1
    17   13   22       1
    18   14   15       2
    19   15   16       1
    20   16   17      ar
    21   16   22      ar
    22   17   18       1
    23   17   19      ar
    24   19   20      ar
    25   20   21      ar
    26   21   22      ar
    27   23   24       1
    28   24   25      ar
    29   24   26      ar
    30   24   27       1
    31   27   28       1
    32   28   29       1
    33   29   30       1
    34   29   31       1
    35   30   35       1
    36   31   32       1
    37   31   33       1
    38   33   34       1
    39   33   35       1
    40   35   36       1
    41   36   37      ar
    42   36   44      ar
    43   37   38      ar
    44   38   39       1
    45   38   42      ar
    46   39   40       2
    47   39   41      am
    48   42   43      ar
    49   43   44      ar
    50   45   46      ar
    51   45   47      ar
    52   45   48      ar
    53   43   72       1
    54    5   49       1
    55    5   50       1
    56    6   51       1
    57    8   52       1
    58    9   53       1
    59   10   54       1
    60   12   55       1
    61   14   56       1
    62   18   57       1
    63   18   58       1
    64   20   59       1
    65   44   73       1
    66   28   60       1
    67   28   61       1
    68   29   62       1
    69   31   63       1
    70   32   64       1
    71   33   65       1
    72   34   66       1
    73   35   67       1
    74   37   68       1
    75   41   69       1
    76   41   70       1
    77   42   71       1
@<TRIPOS>SUBSTRUCTURE
     1 NDP492      1 GROUP             4 A     NDP     0 **** NDP A 492
