@<TRIPOS>MOLECULE
1rv7_AB1_1_ligand
   94    97     1     0     0
SMALL
NO_CHARGES


@<TRIPOS>ATOM
     1 C1          16.4820    32.8820     7.0130 C.3          1 AB11001   0.0000
     2 C2          17.0210    32.6360     4.3850 C.3          1 AB11001   0.0000
     3 N1          16.9340    34.1300     4.3090 N.am         1 AB11001   0.0000
     4 C3          16.8350    34.9100     5.3790 C.2          1 AB11001   0.0000
     5 N2          16.5740    34.2950     6.5480 N.am         1 AB11001   0.0000
     6 C4          17.3280    35.3150    -2.8290 C.ar         1 AB11001   0.0000
     7 C5          16.6990    35.1430    -4.2240 C.ar         1 AB11001   0.0000
     8 C6          17.3100    34.2000    -5.2030 C.ar         1 AB11001   0.0000
     9 C7          18.5330    33.5240    -4.9350 C.ar         1 AB11001   0.0000
    10 C8          19.1460    33.6560    -3.5920 C.ar         1 AB11001   0.0000
    11 C9          18.5770    34.4630    -2.4920 C.ar         1 AB11001   0.0000
    12 O1          16.8790    36.1020     5.4050 O.2          1 AB11001   0.0000
    13 C10         17.2930    34.6810     2.9710 C.3          1 AB11001   0.0000
    14 C11         16.0700    34.5270     2.1590 C.2          1 AB11001   0.0000
    15 N3          15.3000    35.5300     2.3510 N.am         1 AB11001   0.0000
    16 C12         14.0770    35.6330     1.4730 C.3          1 AB11001   0.0000
    17 C13         18.5720    33.8970     2.2980 C.3          1 AB11001   0.0000
    18 C14         18.6880    34.0330     0.7080 C.3          1 AB11001   0.0000
    19 C15         20.0160    34.2110     3.0220 C.3          1 AB11001   0.0000
    20 O2          15.9790    33.5740     1.4750 O.2          1 AB11001   0.0000
    21 C16         12.8640    31.8170     3.5210 C.ar         1 AB11001   0.0000
    22 C17         12.9040    31.9500     5.0410 C.ar         1 AB11001   0.0000
    23 C18         12.9520    33.1930     5.6170 C.ar         1 AB11001   0.0000
    24 C19         13.0210    34.2800     4.6850 C.ar         1 AB11001   0.0000
    25 C20         12.9610    34.1840     3.1770 C.ar         1 AB11001   0.0000
    26 C21         12.7310    32.8820     2.5600 C.ar         1 AB11001   0.0000
    27 C22         12.7610    35.3720     2.1670 C.3          1 AB11001   0.0000
    28 C23         13.9800    36.9940     0.6760 C.3          1 AB11001   0.0000
    29 C24         15.2670    37.4130    -0.0430 C.3          1 AB11001   0.0000
    30 C25         15.6280    36.3060    -0.9950 C.3          1 AB11001   0.0000
    31 N4          14.4930    36.0290    -1.9000 N.am         1 AB11001   0.0000
    32 C26         13.8020    34.8030    -1.7590 C.2          1 AB11001   0.0000
    33 C27         12.6640    34.7600    -2.8810 C.3          1 AB11001   0.0000
    34 O3          13.0730    35.5290    -4.1020 O.3          1 AB11001   0.0000
    35 C28         12.3230    36.4720    -4.9300 C.ar         1 AB11001   0.0000
    36 O4          15.0640    38.5490    -0.7660 O.3          1 AB11001   0.0000
    37 C29         16.8500    36.5500    -1.8740 C.3          1 AB11001   0.0000
    38 O5          13.9430    33.9320    -0.8380 O.2          1 AB11001   0.0000
    39 C30         11.7520    37.8570    -4.3270 C.ar         1 AB11001   0.0000
    40 C31         11.4560    38.7510    -5.2470 C.ar         1 AB11001   0.0000
    41 C32         11.5460    38.4410    -6.7020 C.ar         1 AB11001   0.0000
    42 C33         11.9810    37.2470    -7.4360 C.ar         1 AB11001   0.0000
    43 C34         12.4300    36.2500    -6.5940 C.ar         1 AB11001   0.0000
    44 C35         12.9580    35.1020    -7.2300 C.3          1 AB11001   0.0000
    45 C36         11.5490    38.2980    -2.8820 C.3          1 AB11001   0.0000
    46 C37         16.9650    32.1780     5.8400 C.3          1 AB11001   0.0000
    47 H1          15.5403    32.6276     7.2332 H            1 AB11001   0.0000
    48 H2          17.0663    32.7173     7.8077 H            1 AB11001   0.0000
    49 H3          17.8824    32.3341     3.9766 H            1 AB11001   0.0000
    50 H4          16.2552    32.2346     3.8826 H            1 AB11001   0.0000
    51 H5          16.3987    34.9468     7.2859 H            1 AB11001   0.0000
    52 H6          15.8819    35.6632    -4.4726 H            1 AB11001   0.0000
    53 H7          16.8467    34.0375    -6.0742 H            1 AB11001   0.0000
    54 H8          18.9719    32.9687    -5.6414 H            1 AB11001   0.0000
    55 H9          20.0008    33.1669    -3.4186 H            1 AB11001   0.0000
    56 H10         18.9783    34.4591    -1.5761 H            1 AB11001   0.0000
    57 H11         17.5105    35.6529     3.0608 H            1 AB11001   0.0000
    58 H12         15.4994    36.2152     3.0515 H            1 AB11001   0.0000
    59 H13         14.1718    34.9155     0.7829 H            1 AB11001   0.0000
    60 H14         18.4011    32.9261     2.4656 H            1 AB11001   0.0000
    61 H15         19.4895    33.5279     0.3878 H            1 AB11001   0.0000
    62 H16         17.8653    33.6584     0.2805 H            1 AB11001   0.0000
    63 H17         18.7817    34.9977     0.4619 H            1 AB11001   0.0000
    64 H18         20.7396    33.7001     2.5579 H            1 AB11001   0.0000
    65 H19         20.2109    35.1902     2.9662 H            1 AB11001   0.0000
    66 H20         19.9750    33.9335     3.9818 H            1 AB11001   0.0000
    67 H21         12.9381    30.8904     3.1523 H            1 AB11001   0.0000
    68 H22         12.8952    31.1317     5.6157 H            1 AB11001   0.0000
    69 H23         12.9399    33.3304     6.6074 H            1 AB11001   0.0000
    70 H24         13.1190    35.1968     5.0722 H            1 AB11001   0.0000
    71 H25         12.5095    32.7463     1.5943 H            1 AB11001   0.0000
    72 H26         12.0653    35.1277     1.4914 H            1 AB11001   0.0000
    73 H27         12.4717    36.1913     2.6620 H            1 AB11001   0.0000
    74 H28         13.7363    37.7164     1.3231 H            1 AB11001   0.0000
    75 H29         13.2572    36.9022    -0.0089 H            1 AB11001   0.0000
    76 H30         16.0029    37.5523     0.6196 H            1 AB11001   0.0000
    77 H31         15.7982    35.4813    -0.4556 H            1 AB11001   0.0000
    78 H32         14.2198    36.6930    -2.5960 H            1 AB11001   0.0000
    79 H33         11.8257    35.1595    -2.5101 H            1 AB11001   0.0000
    80 H34         12.4948    33.8082    -3.1370 H            1 AB11001   0.0000
    81 H35         14.3502    38.3873    -1.4474 H            1 AB11001   0.0000
    82 H36         16.6457    37.3292    -2.4666 H            1 AB11001   0.0000
    83 H37         17.6146    36.7804    -1.2720 H            1 AB11001   0.0000
    84 H38         11.1626    39.6634    -4.9616 H            1 AB11001   0.0000
    85 H39         11.2530    39.1927    -7.2929 H            1 AB11001   0.0000
    86 H40         11.9550    37.1652    -8.4323 H            1 AB11001   0.0000
    87 H41         12.9081    35.2179    -8.2220 H            1 AB11001   0.0000
    88 H42         13.9119    34.9784    -6.9564 H            1 AB11001   0.0000
    89 H43         12.4273    34.2982    -6.9611 H            1 AB11001   0.0000
    90 H44         11.1735    39.2247    -2.8659 H            1 AB11001   0.0000
    91 H45         10.9134    37.6729    -2.4289 H            1 AB11001   0.0000
    92 H46         12.4269    38.2857    -2.4033 H            1 AB11001   0.0000
    93 H47         16.4187    31.3408     5.8134 H            1 AB11001   0.0000
    94 H48         17.9129    31.9505     6.0628 H            1 AB11001   0.0000
@<TRIPOS>BOND
     1    1    5       1
     2    1   46       1
     3    2    3       1
     4    2   46       1
     5    3    4      am
     6    3   13       1
     7    4    5      am
     8    4   12       2
     9    6    7      ar
    10    6   11      ar
    11    6   37       1
    12    7    8      ar
    13    8    9      ar
    14    9   10      ar
    15   10   11      ar
    16   13   14       1
    17   13   17       1
    18   14   15      am
    19   14   20       2
    20   15   16       1
    21   16   27       1
    22   16   28       1
    23   17   18       1
    24   17   19       1
    25   21   22      ar
    26   21   26      ar
    27   22   23      ar
    28   23   24      ar
    29   24   25      ar
    30   25   26      ar
    31   25   27       1
    32   28   29       1
    33   29   30       1
    34   29   36       1
    35   30   31       1
    36   30   37       1
    37   31   32      am
    38   32   33       1
    39   32   38       2
    40   33   34       1
    41   34   35       1
    42   35   39      ar
    43   35   43      ar
    44   39   40      ar
    45   39   45       1
    46   40   41      ar
    47   41   42      ar
    48   42   43      ar
    49   43   44       1
    50    1   47       1
    51    1   48       1
    52    2   49       1
    53    2   50       1
    54    5   51       1
    55    7   52       1
    56    8   53       1
    57    9   54       1
    58   10   55       1
    59   11   56       1
    60   13   57       1
    61   15   58       1
    62   16   59       1
    63   17   60       1
    64   18   61       1
    65   18   62       1
    66   18   63       1
    67   19   64       1
    68   19   65       1
    69   19   66       1
    70   21   67       1
    71   22   68       1
    72   23   69       1
    73   24   70       1
    74   26   71       1
    75   27   72       1
    76   27   73       1
    77   28   74       1
    78   28   75       1
    79   29   76       1
    80   30   77       1
    81   31   78       1
    82   33   79       1
    83   33   80       1
    84   36   81       1
    85   37   82       1
    86   37   83       1
    87   40   84       1
    88   41   85       1
    89   42   86       1
    90   44   87       1
    91   44   88       1
    92   44   89       1
    93   45   90       1
    94   45   91       1
    95   45   92       1
    96   46   93       1
    97   46   94       1
@<TRIPOS>SUBSTRUCTURE
     1 AB11001     1 GROUP             4 B     AB1     0 **** AB1 B1001
