@<TRIPOS>MOLECULE
3gwf_NAP_2_ligand
   73    77     1     0     0
SMALL
NO_CHARGES


@<TRIPOS>ATOM
     1 PA          -8.6350     1.4580     7.1910 P.3          1 NAP542   0.0000
     2 O1A         -9.8920     1.7590     6.4590 O.co2        1 NAP542   0.0000
     3 O2A         -8.2590     2.5250     8.1500 O.co2        1 NAP542  -1.0000
     4 O5B         -7.4750     1.2210     6.1020 O.3          1 NAP542   0.0000
     5 C5B         -7.7540     0.5410     4.9030 C.3          1 NAP542   0.0000
     6 C4B         -6.4940     0.5480     4.0350 C.3          1 NAP542   0.0000
     7 O4B         -6.7110    -0.2550     2.8960 O.3          1 NAP542   0.0000
     8 C3B         -6.1680     1.9410     3.5220 C.3          1 NAP542   0.0000
     9 O3B         -4.7710     2.0180     3.3030 O.3          1 NAP542   0.0000
    10 C2B         -6.8870     1.9510     2.2000 C.3          1 NAP542   0.0000
    11 O2B         -6.3280     2.9230     1.3490 O.3          1 NAP542   0.0000
    12 C1B         -6.6750     0.5200     1.7150 C.3          1 NAP542   0.0000
    13 N9A         -7.6970     0.0010     0.7790 N.pl3        1 NAP542   0.0000
    14 C8A         -9.0550    -0.1020     1.0010 C.2          1 NAP542   0.0000
    15 N7A         -9.6250    -0.6520    -0.0980 N.2          1 NAP542   0.0000
    16 C5A         -8.6630    -0.9150    -1.0110 C.ar         1 NAP542   0.0000
    17 C6A         -8.7040    -1.4680    -2.2950 C.ar         1 NAP542   0.0000
    18 N6A         -9.8540    -1.8530    -2.8440 N.pl3        1 NAP542   0.0000
    19 N1A         -7.5310    -1.6120    -3.0030 N.ar         1 NAP542   0.0000
    20 C2A         -6.3310    -1.2040    -2.4470 C.ar         1 NAP542   0.0000
    21 N3A         -6.2950    -0.6610    -1.1760 N.ar         1 NAP542   0.0000
    22 C4A         -7.4430    -0.5140    -0.4700 C.ar         1 NAP542   0.0000
    23 O3          -8.7640     0.0010     7.8970 O.3          1 NAP542   0.0000
    24 PN          -7.9670    -0.5640     9.2050 P.3          1 NAP542   0.0000
    25 O1N         -6.6030    -0.0160     9.2830 O.co2        1 NAP542   0.0000
    26 O2N         -8.1610    -2.0420     9.1870 O.co2        1 NAP542  -1.0000
    27 O5D         -8.8440    -0.0020    10.4360 O.3          1 NAP542   0.0000
    28 C5D        -10.2290    -0.3210    10.4980 C.3          1 NAP542   0.0000
    29 C4D        -11.0220     0.7080    11.2910 C.3          1 NAP542   0.0000
    30 O4D        -10.7730     0.5240    12.6670 O.3          1 NAP542   0.0000
    31 C3D        -10.6680     2.1490    10.9450 C.3          1 NAP542   0.0000
    32 O3D        -11.8690     2.8460    10.7040 O.3          1 NAP542   0.0000
    33 C2D         -9.9560     2.7160    12.1610 C.3          1 NAP542   0.0000
    34 O2D        -10.4630     3.9830    12.5250 O.3          1 NAP542   0.0000
    35 C1D        -10.2230     1.6930    13.2620 C.3          1 NAP542   0.0000
    36 N1N         -8.9830     1.3660    13.9970 N.ar         1 NAP542   1.0000
    37 C2N         -8.7020     2.0570    15.1390 C.ar         1 NAP542   0.0000
    38 C3N         -7.5440     1.7710    15.8470 C.ar         1 NAP542   0.0000
    39 C7N         -7.2510     2.5340    17.0940 C.2          1 NAP542   0.0000
    40 O7N         -8.3116     3.2252    17.7102 O.2          1 NAP542   0.0000
    41 N7N         -6.0123     2.5224    17.5824 N.am         1 NAP542   0.0000
    42 C4N         -6.6630     0.7830    15.4080 C.ar         1 NAP542   0.0000
    43 C5N         -6.9610     0.0720    14.2520 C.ar         1 NAP542   0.0000
    44 C6N         -8.1280     0.3800    13.5540 C.ar         1 NAP542   0.0000
    45 P2B         -7.0870     4.3350     1.1520 P.3          1 NAP542   0.0000
    46 O1X         -6.6670     5.2580     2.2710 O.co2        1 NAP542   0.0000
    47 O2X         -6.7280     4.8850    -0.2070 O.co2        1 NAP542  -1.0000
    48 O3X         -8.5760     4.1200     1.2360 O.co2        1 NAP542  -1.0000
    49 H5B1        -8.4988     1.0013     4.4198 H            1 NAP542   0.0000
    50 H5B2        -8.0196    -0.4019     5.1041 H            1 NAP542   0.0000
    51 H4B         -5.7205     0.1907     4.5585 H            1 NAP542   0.0000
    52 H3B         -6.4955     2.6580     4.1373 H            1 NAP542   0.0000
    53 H5          -4.4625     2.9584     3.4460 H            1 NAP542   0.0000
    54 H2B         -7.8613     2.1296     2.3369 H            1 NAP542   0.0000
    55 H1B         -5.7708     0.4427     1.2950 H            1 NAP542   0.0000
    56 H8A         -9.5359     0.1809     1.8309 H            1 NAP542   0.0000
    57 H6A1        -9.8622    -2.2462    -3.7634 H            1 NAP542   0.0000
    58 H6A2       -10.7096    -1.7490    -2.3370 H            1 NAP542   0.0000
    59 H2A         -5.4835    -1.3027    -2.9686 H            1 NAP542   0.0000
    60 H5D1       -10.3343    -1.2146    10.9344 H            1 NAP542   0.0000
    61 H5D2       -10.5924    -0.3598     9.5672 H            1 NAP542   0.0000
    62 H4D        -11.9967     0.5658    11.1185 H            1 NAP542   0.0000
    63 H3D        -10.0738     2.1826    10.1414 H            1 NAP542   0.0000
    64 H16        -11.9500     3.6041    11.3510 H            1 NAP542   0.0000
    65 H2D         -8.9739     2.7789    11.9836 H            1 NAP542   0.0000
    66 H18         -9.7292     4.6609    12.4809 H            1 NAP542   0.0000
    67 H1D        -10.8889     2.0739    13.9035 H            1 NAP542   0.0000
    68 H2N         -9.3276     2.7661    15.4641 H            1 NAP542   0.0000
    69 H7N1        -5.8043     3.0109    18.4298 H            1 NAP542   0.0000
    70 H7N2        -5.2900     2.0251    17.1017 H            1 NAP542   0.0000
    71 H4N         -5.8261     0.5884    15.9195 H            1 NAP542   0.0000
    72 H5N         -6.3488    -0.6484    13.9262 H            1 NAP542   0.0000
    73 H6N         -8.3483    -0.1228    12.7181 H            1 NAP542   0.0000
@<TRIPOS>BOND
     1    1    2      ar
     2    1    3      ar
     3    1    4       1
     4    1   23       1
     5    4    5       1
     6    5    6       1
     7    6    7       1
     8    6    8       1
     9    7   12       1
    10    8    9       1
    11    8   10       1
    12   10   11       1
    13   10   12       1
    14   11   45       1
    15   12   13       1
    16   13   14       1
    17   13   22       1
    18   14   15       2
    19   15   16       1
    20   16   17      ar
    21   16   22      ar
    22   17   18       1
    23   17   19      ar
    24   19   20      ar
    25   20   21      ar
    26   21   22      ar
    27   23   24       1
    28   24   25      ar
    29   24   26      ar
    30   24   27       1
    31   27   28       1
    32   28   29       1
    33   29   30       1
    34   29   31       1
    35   30   35       1
    36   31   32       1
    37   31   33       1
    38   33   34       1
    39   33   35       1
    40   35   36       1
    41   36   37      ar
    42   36   44      ar
    43   37   38      ar
    44   38   39       1
    45   38   42      ar
    46   39   40       2
    47   39   41      am
    48   42   43      ar
    49   43   44      ar
    50   45   46      ar
    51   45   47      ar
    52   45   48      ar
    53   43   72       1
    54    5   49       1
    55    5   50       1
    56    6   51       1
    57    8   52       1
    58    9   53       1
    59   10   54       1
    60   12   55       1
    61   14   56       1
    62   18   57       1
    63   18   58       1
    64   20   59       1
    65   44   73       1
    66   28   60       1
    67   28   61       1
    68   29   62       1
    69   31   63       1
    70   32   64       1
    71   33   65       1
    72   34   66       1
    73   35   67       1
    74   37   68       1
    75   41   69       1
    76   41   70       1
    77   42   71       1
@<TRIPOS>SUBSTRUCTURE
     1 NAP542      1 GROUP             4 A     NAP     0 **** NAP A 542
