@<TRIPOS>MOLECULE
./coach420/3d4p/ligand.pdb
 49 50 0 0 0
SMALL
GASTEIGER

@<TRIPOS>ATOM
      1  PA        43.3570   88.3890   31.9590 P.3   318  NAD318      0.2189
      2  O1A       42.1700   88.0610   32.8370 O.3   318  NAD318     -0.4371
      3  O2A       43.6270   89.8430   31.7560 O.2   318  NAD318     -0.5170
      4  O5B       44.6820   87.7150   32.5460 O.3   318  NAD318     -0.3112
      5  C5B       45.9800   87.9270   32.0120 C.3   318  NAD318      0.1813
      6  C4B       46.9060   87.6210   33.1850 C.3   318  NAD318      0.1801
      7  O4B       48.2280   87.5800   32.7070 O.3   318  NAD318     -0.3306
      8  C3B       46.8680   88.7220   34.2530 C.3   318  NAD318      0.2161
      9  O3B       46.6190   88.1650   35.5410 O.3   318  NAD318     -0.2175
     10  C2B       48.2620   89.3270   34.2010 C.3   318  NAD318      0.2337
     11  O2B       48.6610   89.7760   35.4830 O.3   318  NAD318     -0.2155
     12  C1B       49.0700   88.1460   33.7260 C.3   318  NAD318      0.2409
     13  N9A       50.3840   88.5200   33.1750 N.ar  318  NAD318     -0.2693
     14  C8A       50.6440   89.4940   32.2460 C.ar  318  NAD318      0.1816
     15  N7A       51.9810   89.5060   32.0090 N.ar  318  NAD318     -0.2193
     16  C5A       52.5520   88.5420   32.7790 C.ar  318  NAD318      0.1518
     17  C6A       53.8630   88.1270   32.9320 C.ar  318  NAD318      0.1919
     18  N6A       54.8620   88.7780   32.3340 N.pl3 318  NAD318     -0.1054
     19  N1A       54.1480   87.1160   33.8130 N.ar  318  NAD318     -0.2040
     20  C2A       53.1540   86.4910   34.5390 C.ar  318  NAD318      0.2016
     21  N3A       51.8460   86.9230   34.3840 N.ar  318  NAD318     -0.2048
     22  C4A       51.5590   87.9190   33.5100 C.ar  318  NAD318      0.1692
     23  O3        43.1900   87.7380   30.5110 O.3   318  NAD318     -0.2703
     24  PN        42.3340   86.4140   30.2260 P.3   318  NAD318      0.2189
     25  O1N       40.9210   86.7460   29.8900 O.2   318  NAD318     -0.5170
     26  O2N       42.6320   85.3440   31.2180 O.3   318  NAD318     -0.4371
     27  O5D       43.0020   86.0070   28.8140 O.3   318  NAD318     -0.3112
     28  C5D       44.3740   85.6150   28.7730 C.3   318  NAD318      0.1813
     29  C4D       44.8410   85.2630   27.3550 C.3   318  NAD318      0.1799
     30  O4D       44.1240   84.1330   26.8730 O.3   318  NAD318     -0.3327
     31  C3D       44.5690   86.3700   26.3370 C.3   318  NAD318      0.2158
     32  O3D       45.5920   86.3070   25.3600 O.3   318  NAD318     -0.2175
     33  C2D       43.2670   85.9190   25.6950 C.3   318  NAD318      0.2309
     34  O2D       43.0340   86.5320   24.4400 O.3   318  NAD318     -0.2158
     35  C1D       43.5810   84.4540   25.5900 C.3   318  NAD318      0.2263
     36  N1N       42.4280   83.5980   25.2940 N.pl3 318  NAD318     -0.2787
     37  C2N       42.6900   82.5110   24.5220 C.3   318  NAD318      0.1244
     38  C3N       41.6850   81.6280   24.2070 C.2   318  NAD318      0.0544
     39  C7N       42.0090   80.4140   23.3700 C.2   318  NAD318      0.2818
     40  O7N       43.3540   80.1850   22.9520 O.2   318  NAD318     -0.2670
     41  N7N       41.0110   79.5960   23.0670 N.am  318  NAD318     -0.0839
     42  C4N       40.4030   81.8590   24.7260 C.2   318  NAD318      0.0033
     43  C5N       40.1420   82.9510   25.5530 C.2   318  NAD318      0.0157
     44  C6N       41.1970   83.8200   25.8440 C.2   318  NAD318      0.0633
     45  O1        37.2830   82.1280   23.2510 O.3   319  PYR319      0.0000
     46  O2        38.2240   81.5100   21.3110 O.3   319  PYR319      0.0000
     47  C2        39.2740   83.1700   22.5040 C.3   319  PYR319      0.1822
     48  O3        40.4670   82.8820   21.9880 O.3   319  PYR319     -0.2204
     49  C3        38.9840   84.4980   23.1580 C.3   319  PYR319      0.0382
@<TRIPOS>BOND
     1     1    23    1
     2     1     3    2
     3     1     4    1
     4     1     2    1
     5     4     5    1
     6     5     6    1
     7     6     7    1
     8     6     8    1
     9     7    12    1
    10     8    10    1
    11     8     9    1
    12    10    12    1
    13    10    11    1
    14    12    13    1
    15    13    14   ar
    16    13    22   ar
    17    14    15   ar
    18    15    16   ar
    19    16    17   ar
    20    16    22   ar
    21    17    18    1
    22    17    19   ar
    23    19    20   ar
    24    20    21   ar
    25    21    22   ar
    26    23    24    1
    27    24    27    1
    28    24    25    2
    29    24    26    1
    30    27    28    1
    31    28    29    1
    32    29    31    1
    33    29    30    1
    34    30    35    1
    35    31    32    1
    36    31    33    1
    37    33    34    1
    38    33    35    1
    39    35    36    1
    40    36    37    1
    41    36    44    1
    42    37    38    1
    43    38    39    1
    44    38    42    2
    45    39    40    2
    46    39    41   am
    47    42    43    1
    48    43    44    2
    49    47    48    1
    50    47    49    1
