@<TRIPOS>MOLECULE
2hma_SAM_1_ligand
   50    52     1     0     0
SMALL
NO_CHARGES


@<TRIPOS>ATOM
     1 N           27.3400    28.1860     5.5690 N.4          1 SAM375   1.0000
     2 CA          28.5340    28.8850     6.1540 C.3          1 SAM375   0.0000
     3 C           29.2460    28.1560     7.3220 C.2          1 SAM375   0.0000
     4 O           28.6900    27.2250     7.9140 O.co2        1 SAM375   0.0000
     5 OXT         30.4040    28.5000     7.6890 O.co2        1 SAM375  -1.0000
     6 CB          28.1960    30.3320     6.5650 C.3          1 SAM375   0.0000
     7 CG          27.6520    30.4970     7.9810 C.3          1 SAM375   0.0000
     8 SD          28.5350    31.6550     9.0610 S.3          1 SAM375   1.0000
     9 CE          27.7410    33.1510     8.3950 C.3          1 SAM375   0.0000
    10 C5'         27.4850    31.2930    10.5040 C.3          1 SAM375   0.0000
    11 C4'         27.9940    31.7750    11.8610 C.3          1 SAM375   0.0000
    12 O4'         29.3410    31.4350    12.1160 O.3          1 SAM375   0.0000
    13 C3'         27.9600    33.2780    12.0160 C.3          1 SAM375   0.0000
    14 O3'         26.6500    33.7140    12.2360 O.3          1 SAM375   0.0000
    15 C2'         28.8610    33.4680    13.1910 C.3          1 SAM375   0.0000
    16 O2'         28.1570    33.2730    14.3930 O.3          1 SAM375   0.0000
    17 C1'         29.9070    32.3660    13.0020 C.3          1 SAM375   0.0000
    18 N9          31.0920    33.0130    12.4080 N.pl3        1 SAM375   0.0000
    19 C8          31.4180    33.1300    11.0820 C.2          1 SAM375   0.0000
    20 N7          32.5750    33.8440    10.9560 N.2          1 SAM375   0.0000
    21 C5          32.9930    34.1670    12.2250 C.ar         1 SAM375   0.0000
    22 C6          34.0810    34.8720    12.7390 C.ar         1 SAM375   0.0000
    23 N6          34.9970    35.3890    11.9280 N.pl3        1 SAM375   0.0000
    24 N1          34.1980    35.0590    14.1070 N.ar         1 SAM375   0.0000
    25 C2          33.2820    34.5560    14.9600 C.ar         1 SAM375   0.0000
    26 N3          32.2110    33.8630    14.4610 N.ar         1 SAM375   0.0000
    27 C4          32.0580    33.6720    13.1280 C.ar         1 SAM375   0.0000
    28 H1          26.9598    28.7394     4.8279 H            1 SAM375   0.0000
    29 H2          27.6180    27.2948     5.2106 H            1 SAM375   0.0000
    30 HA          29.2061    28.9539     5.4168 H            1 SAM375   0.0000
    31 HB1         27.5096    30.6820     5.9275 H            1 SAM375   0.0000
    32 HB2         29.0305    30.8778     6.4890 H            1 SAM375   0.0000
    33 HG1         27.6709    29.5986     8.4197 H            1 SAM375   0.0000
    34 HG2         26.7058    30.8122     7.9075 H            1 SAM375   0.0000
    35 HE1         28.0959    33.9563     8.8699 H            1 SAM375   0.0000
    36 HE2         27.9387    33.2263     7.4176 H            1 SAM375   0.0000
    37 HE3         26.7521    33.0924     8.5315 H            1 SAM375   0.0000
    38 H5'1        27.3745    30.3005    10.5569 H            1 SAM375   0.0000
    39 H5'2        26.5946    31.7196    10.3454 H            1 SAM375   0.0000
    40 H4'         27.4240    31.3696    12.5756 H            1 SAM375   0.0000
    41 H3'         28.3442    33.7213    11.2061 H            1 SAM375   0.0000
    42 H15         26.0769    33.4531    11.4591 H            1 SAM375   0.0000
    43 H2'         29.2879    34.3721    13.1705 H            1 SAM375   0.0000
    44 H17         28.1931    34.1094    14.9399 H            1 SAM375   0.0000
    45 H1'         30.1348    31.9356    13.8754 H            1 SAM375   0.0000
    46 H19         30.8893    32.7505    10.3228 H            1 SAM375   0.0000
    47 H20         35.7733    35.8928    12.3070 H            1 SAM375   0.0000
    48 H21         34.9104    35.2745    10.9384 H            1 SAM375   0.0000
    49 H22         33.3837    34.6876    15.9461 H            1 SAM375   0.0000
    50 H23         26.6474    28.0585     6.2790 H            1 SAM375   0.0000
@<TRIPOS>BOND
     1    1    2       1
     2    2    3       1
     3    2    6       1
     4    3    4      ar
     5    3    5      ar
     6    6    7       1
     7    7    8       1
     8    8    9       1
     9    8   10       1
    10   10   11       1
    11   11   12       1
    12   11   13       1
    13   12   17       1
    14   13   14       1
    15   13   15       1
    16   15   16       1
    17   15   17       1
    18   17   18       1
    19   18   19       1
    20   18   27       1
    21   19   20       2
    22   20   21       1
    23   21   22      ar
    24   21   27      ar
    25   22   23       1
    26   22   24      ar
    27   24   25      ar
    28   25   26      ar
    29   26   27      ar
    30    1   28       1
    31    1   29       1
    32    2   30       1
    33    1   50       1
    34    6   31       1
    35    6   32       1
    36    7   33       1
    37    7   34       1
    38    9   35       1
    39    9   36       1
    40    9   37       1
    41   10   38       1
    42   10   39       1
    43   11   40       1
    44   13   41       1
    45   14   42       1
    46   15   43       1
    47   16   44       1
    48   17   45       1
    49   19   46       1
    50   23   47       1
    51   23   48       1
    52   25   49       1
@<TRIPOS>SUBSTRUCTURE
     1 SAM375      1 GROUP             4 A     SAM     0 **** SAM A 375
