@<TRIPOS>MOLECULE
2q66_ATP_1_ligand
   43    45     1     0     0
SMALL
NO_CHARGES


@<TRIPOS>ATOM
     1 PG          25.9610    37.7450    32.9390 P.3          1 ATP605   0.0000
     2 O1G         26.1560    38.7800    34.0310 O.co2        1 ATP605   0.0000
     3 O2G         25.0290    36.6400    33.3830 O.co2        1 ATP605  -1.0000
     4 O3G         25.6510    38.3270    31.5930 O.co2        1 ATP605  -1.0000
     5 PB          28.7770    37.2560    33.5340 P.3          1 ATP605   0.0000
     6 O1B         28.9430    38.7630    33.7550 O.co2        1 ATP605   0.0000
     7 O2B         29.8610    36.4880    32.8450 O.co2        1 ATP605  -1.0000
     8 O3B         27.4010    37.0320    32.7280 O.3          1 ATP605   0.0000
     9 PA          28.3760    37.0150    36.4200 P.3          1 ATP605   0.0000
    10 O1A         27.9070    38.4760    36.4270 O.co2        1 ATP605   0.0000
    11 O2A         27.5770    35.9830    37.1990 O.co2        1 ATP605  -1.0000
    12 O3A         28.4980    36.4630    34.9020 O.3          1 ATP605   0.0000
    13 O5'         29.8890    36.9360    36.9750 O.3          1 ATP605   0.0000
    14 C5'         30.8700    37.8380    36.4560 C.3          1 ATP605   0.0000
    15 C4'         32.2200    37.1710    36.3530 C.3          1 ATP605   0.0000
    16 O4'         32.5940    36.5930    37.6070 O.3          1 ATP605   0.0000
    17 C3'         32.2740    36.0110    35.3780 C.3          1 ATP605   0.0000
    18 O3'         32.2950    36.3970    34.0040 O.3          1 ATP605   0.0000
    19 C2'         33.5000    35.2550    35.8630 C.3          1 ATP605   0.0000
    20 O2'         34.7350    35.8230    35.3980 O.3          1 ATP605   0.0000
    21 C1'         33.3770    35.4110    37.3660 C.3          1 ATP605   0.0000
    22 N9          32.6170    34.2400    37.8550 N.pl3        1 ATP605   0.0000
    23 C8          31.3250    34.2250    38.2370 C.2          1 ATP605   0.0000
    24 N7          30.9390    32.9800    38.6300 N.2          1 ATP605   0.0000
    25 C5          32.0060    32.1880    38.4860 C.ar         1 ATP605   0.0000
    26 C6          32.2750    30.7550    38.7100 C.ar         1 ATP605   0.0000
    27 N6          31.2810    29.9790    39.1800 N.pl3        1 ATP605   0.0000
    28 N1          33.5200    30.3030    38.4390 N.ar         1 ATP605   0.0000
    29 C2          34.4960    31.1110    37.9630 C.ar         1 ATP605   0.0000
    30 N3          34.3150    32.4380    37.7310 N.ar         1 ATP605   0.0000
    31 C4          33.1100    33.0090    37.9680 C.ar         1 ATP605   0.0000
    32 H5'1        30.9416    38.6283    37.0646 H            1 ATP605   0.0000
    33 H5'2        30.5856    38.1421    35.5468 H            1 ATP605   0.0000
    34 H4'         32.9029    37.8524    36.0896 H            1 ATP605   0.0000
    35 H3'         31.4703    35.4358    35.5300 H            1 ATP605   0.0000
    36 H5          31.3577    36.4615    33.6615 H            1 ATP605   0.0000
    37 H2'         33.4402    34.2905    35.6057 H            1 ATP605   0.0000
    38 H7          35.0573    36.5039    36.0557 H            1 ATP605   0.0000
    39 H1'         34.2749    35.4721    37.8019 H            1 ATP605   0.0000
    40 H9          30.7262    35.0259    38.2324 H            1 ATP605   0.0000
    41 H10         31.4401    29.0047    39.3396 H            1 ATP605   0.0000
    42 H11         30.3833    30.3767    39.3697 H            1 ATP605   0.0000
    43 H12         35.3933    30.7126    37.7729 H            1 ATP605   0.0000
@<TRIPOS>BOND
     1    1    2      ar
     2    1    3      ar
     3    1    4      ar
     4    1    8       1
     5    5    6      ar
     6    5    7      ar
     7    5    8       1
     8    5   12       1
     9    9   10      ar
    10    9   11      ar
    11    9   12       1
    12    9   13       1
    13   13   14       1
    14   14   15       1
    15   15   16       1
    16   15   17       1
    17   16   21       1
    18   17   18       1
    19   17   19       1
    20   19   20       1
    21   19   21       1
    22   21   22       1
    23   22   23       1
    24   22   31       1
    25   23   24       2
    26   24   25       1
    27   25   26      ar
    28   25   31      ar
    29   26   27       1
    30   26   28      ar
    31   28   29      ar
    32   29   30      ar
    33   30   31      ar
    34   29   43       1
    35   27   42       1
    36   27   41       1
    37   23   40       1
    38   14   32       1
    39   14   33       1
    40   15   34       1
    41   17   35       1
    42   18   36       1
    43   19   37       1
    44   20   38       1
    45   21   39       1
@<TRIPOS>SUBSTRUCTURE
     1 ATP605      1 GROUP             4 A     ATP     0 **** ATP A 605
