@<TRIPOS>MOLECULE
2dkh_3HB_1_ligand
   15    15     1     0     0
SMALL
NO_CHARGES


@<TRIPOS>ATOM
     1 C1'         25.5160    43.4890    29.7840 C.2          1 3HB641   0.0000
     2 O1'         24.9270    44.5970    29.8180 O.co2        1 3HB641   0.0000
     3 O2'         26.7520    43.4390    29.8170 O.co2        1 3HB641  -1.0000
     4 C1          24.6740    42.2340    29.7000 C.ar         1 3HB641   0.0000
     5 C2          23.3660    42.2310    30.2910 C.ar         1 3HB641   0.0000
     6 C3          22.5640    41.0770    30.2280 C.ar         1 3HB641   0.0000
     7 C4          23.0470    39.9170    29.5820 C.ar         1 3HB641   0.0000
     8 C5          24.3630    39.9140    28.9870 C.ar         1 3HB641   0.0000
     9 C6          25.1730    41.0570    29.0420 C.ar         1 3HB641   0.0000
    10 O3          21.3260    41.1330    30.8100 O.3          1 3HB641   0.0000
    11 H1          23.0239    43.0516    30.7488 H            1 3HB641   0.0000
    12 H2          22.4768    39.0968    29.5367 H            1 3HB641   0.0000
    13 H3          24.6993    39.0895    28.5319 H            1 3HB641   0.0000
    14 H4          26.0841    41.0537    28.6298 H            1 3HB641   0.0000
    15 H5          21.0219    41.9734    31.2586 H            1 3HB641   0.0000
@<TRIPOS>BOND
     1    1    2      ar
     2    1    3      ar
     3    1    4       1
     4    4    5      ar
     5    4    9      ar
     6    5    6      ar
     7    6    7      ar
     8    6   10       1
     9    7    8      ar
    10    8    9      ar
    11   10   15       1
    12    5   11       1
    13    7   12       1
    14    8   13       1
    15    9   14       1
@<TRIPOS>SUBSTRUCTURE
     1 3HB641      1 GROUP             4 A     3HB     0 **** 3HB A 641
