@<TRIPOS>MOLECULE
./coach420/3h2k/ligand.pdb
 39 37 0 0 0
SMALL
GASTEIGER

@<TRIPOS>ATOM
      1  C1        15.4220  -14.6810   11.4960 C.3   398  BOG398      0.2695
      2  O1        16.3730  -14.1490   12.4300 O.3   398  BOG398     -0.3286
      3  C2        14.6560  -15.8430   12.1290 C.3   398  BOG398      0.2406
      4  O2        15.5590  -16.8770   12.5300 O.3   398  BOG398     -0.2149
      5  C3        13.6480  -16.3990   11.1220 C.3   398  BOG398      0.2198
      6  O3        12.8460  -17.4000   11.7550 O.3   398  BOG398     -0.2174
      7  C4        12.7470  -15.2700   10.6180 C.3   398  BOG398      0.2144
      8  O4        11.9580  -15.7650    9.5330 O.3   398  BOG398     -0.2176
      9  C5        13.5880  -14.0910   10.1240 C.3   398  BOG398      0.1835
     10  O5        14.4890  -13.6460   11.1490 O.3   398  BOG398     -0.3256
     11  C6        12.6590  -12.9240    9.7830 C.3   398  BOG398      0.2142
     12  O6        11.9660  -12.5130   10.9640 O.3   398  BOG398     -0.2176
     13  C1'       17.0650  -13.0430   11.8330 C.3   398  BOG398      0.1449
     14  C2'       17.7560  -12.2530   12.9470 C.3   398  BOG398      0.0322
     15  C3'       18.4870  -11.0230   12.4060 C.3   398  BOG398      0.0026
     16  C4'       19.0320  -10.1960   13.5720 C.3   398  BOG398      0.0001
     17  C5'       19.7220   -8.9130   13.1040 C.3   398  BOG398      0.0000
     18  C6'       20.1350   -8.0730   14.3150 C.3   398  BOG398      0.0000
     19  C7'       20.7480   -6.7390   13.8860 C.3   398  BOG398      0.0000
     20  C8'       21.0840   -5.8770   15.1050 C.3   398  BOG398      0.0000
     21  O1        17.9260  -11.4500   28.2070 O.3   399  BOG399     -0.2204
     22  C2        19.1150   -9.6500   29.2940 C.3   399  BOG399      0.2175
     23  O2        18.2270   -8.6710   28.7460 O.3   399  BOG399     -0.2175
     24  C3        20.4970   -9.0330   29.5130 C.3   399  BOG399      0.2175
     25  O3        20.4050   -7.9870   30.4840 O.3   399  BOG399     -0.2175
     26  C4        21.4590  -10.1110   30.0130 C.3   399  BOG399      0.2175
     27  O4        22.7810   -9.5690   30.0750 O.3   399  BOG399     -0.2175
     28  C5        21.4500  -11.3100   29.0610 C.3   399  BOG399      0.2175
     29  O5        20.1160  -11.8240   28.9180 O.3   399  BOG399     -0.2175
     30  C6        22.3390  -12.4050   29.6530 C.3   399  BOG399      0.2175
     31  O6        22.3140  -13.5570   28.8060 O.3   399  BOG399     -0.2175
     32  C1'       17.8680  -12.2320   27.0060 C.3   399  BOG399      0.1821
     33  C2'       17.0780  -11.4570   25.9490 C.3   399  BOG399      0.0355
     34  C3'       16.9360  -12.2670   24.6590 C.3   399  BOG399      0.0027
     35  C4'       16.0270  -11.5540   23.6560 C.3   399  BOG399      0.0001
     36  C5'       16.6240  -10.2270   23.1820 C.3   399  BOG399      0.0000
     37  C6'       17.8940  -10.4500   22.3590 C.3   399  BOG399      0.0000
     38  C7'       18.4360   -9.1210   21.8300 C.3   399  BOG399      0.0000
     39  C8'       19.6790   -9.3380   20.9650 C.3   399  BOG399      0.0000
@<TRIPOS>BOND
     1     1    10    1
     2     1     3    1
     3     1     2    1
     4     2    13    1
     5     3     5    1
     6     3     4    1
     7     5     7    1
     8     5     6    1
     9     7     8    1
    10     7     9    1
    11     9    11    1
    12     9    10    1
    13    11    12    1
    14    13    14    1
    15    14    15    1
    16    15    16    1
    17    16    17    1
    18    17    18    1
    19    18    19    1
    20    19    20    1
    21    21    32    1
    22    22    23    1
    23    22    24    1
    24    24    26    1
    25    24    25    1
    26    26    28    1
    27    26    27    1
    28    28    29    1
    29    28    30    1
    30    30    31    1
    31    32    33    1
    32    33    34    1
    33    34    35    1
    34    35    36    1
    35    36    37    1
    36    37    38    1
    37    38    39    1
