@<TRIPOS>MOLECULE
4xgu_ADP_2_ligand
   39    41     1     0     0
SMALL
NO_CHARGES


@<TRIPOS>ATOM
     1 PB          45.1620   230.3410   216.7630 P.3          1 ADP503   0.0000
     2 O1B         45.4930   230.7740   215.3560 O.co2        1 ADP503   0.0000
     3 O2B         46.2070   230.7550   217.7690 O.co2        1 ADP503  -1.0000
     4 O3B         43.7360   230.6180   217.1810 O.co2        1 ADP503  -1.0000
     5 PA          45.7350   227.8840   218.0140 P.3          1 ADP503   0.0000
     6 O1A         47.1970   228.1590   218.2590 O.co2        1 ADP503   0.0000
     7 O2A         44.7240   228.1040   219.1160 O.co2        1 ADP503  -1.0000
     8 O3A         45.2660   228.7300   216.7250 O.3          1 ADP503   0.0000
     9 O5'         45.6380   226.3520   217.5400 O.3          1 ADP503   0.0000
    10 C5'         44.7910   225.9260   216.4750 C.3          1 ADP503   0.0000
    11 C4'         44.9190   224.4120   216.3410 C.3          1 ADP503   0.0000
    12 O4'         45.0440   224.0560   214.9630 O.3          1 ADP503   0.0000
    13 C3'         46.1470   223.8740   217.0640 C.3          1 ADP503   0.0000
    14 O3'         45.7520   223.0920   218.1940 O.3          1 ADP503   0.0000
    15 C2'         46.8780   223.0020   216.0650 C.3          1 ADP503   0.0000
    16 O2'         46.8030   221.6290   216.4660 O.3          1 ADP503   0.0000
    17 C1'         46.1650   223.2000   214.7380 C.3          1 ADP503   0.0000
    18 N9          47.0890   223.9140   213.8320 N.pl3        1 ADP503   0.0000
    19 C8          46.9370   225.1840   213.4180 C.2          1 ADP503   0.0000
    20 N7          47.9510   225.5550   212.5970 N.2          1 ADP503   0.0000
    21 C5          48.7750   224.5020   212.4790 C.ar         1 ADP503   0.0000
    22 C6          50.0330   224.2180   211.7630 C.ar         1 ADP503   0.0000
    23 N6          50.6160   225.1640   210.9910 N.pl3        1 ADP503   0.0000
    24 N1          50.5720   222.9880   211.9030 N.ar         1 ADP503   0.0000
    25 C2          49.9910   222.0450   212.6680 C.ar         1 ADP503   0.0000
    26 N3          48.8480   222.2330   213.3510 N.ar         1 ADP503   0.0000
    27 C4          48.2040   223.4200   213.2950 C.ar         1 ADP503   0.0000
    28 H5'1        45.0719   226.3663   215.6222 H            1 ADP503   0.0000
    29 H5'2        43.8426   226.1688   216.6789 H            1 ADP503   0.0000
    30 H4'         44.1004   223.9791   216.7185 H            1 ADP503   0.0000
    31 H3'         46.7335   224.6295   217.3559 H            1 ADP503   0.0000
    32 H5          46.4543   223.1528   218.9033 H            1 ADP503   0.0000
    33 H2'         47.8332   223.2884   215.9902 H            1 ADP503   0.0000
    34 H7          46.2832   221.5583   217.3174 H            1 ADP503   0.0000
    35 H1'         45.8792   222.3251   214.3470 H            1 ADP503   0.0000
    36 H9          46.1762   225.7773   213.6809 H            1 ADP503   0.0000
    37 H10         51.4688   224.9610   210.5099 H            1 ADP503   0.0000
    38 H11         50.1940   226.0662   210.9015 H            1 ADP503   0.0000
    39 H12         50.4358   221.1517   212.7322 H            1 ADP503   0.0000
@<TRIPOS>BOND
     1    1    2      ar
     2    1    3      ar
     3    1    4      ar
     4    1    8       1
     5    5    6      ar
     6    5    7      ar
     7    5    8       1
     8    5    9       1
     9    9   10       1
    10   10   11       1
    11   11   12       1
    12   11   13       1
    13   12   17       1
    14   13   14       1
    15   13   15       1
    16   15   16       1
    17   15   17       1
    18   17   18       1
    19   18   19       1
    20   18   27       1
    21   19   20       2
    22   20   21       1
    23   21   22      ar
    24   21   27      ar
    25   22   23       1
    26   22   24      ar
    27   24   25      ar
    28   25   26      ar
    29   26   27      ar
    30   25   39       1
    31   23   38       1
    32   23   37       1
    33   10   28       1
    34   10   29       1
    35   11   30       1
    36   13   31       1
    37   14   32       1
    38   15   33       1
    39   16   34       1
    40   17   35       1
    41   19   36       1
@<TRIPOS>SUBSTRUCTURE
     1 ADP503      1 GROUP             4 E     ADP     0 **** ADP E 503
