@<TRIPOS>MOLECULE
4fmx_CNL_1_ligand
   29    30     1     0     0
SMALL
NO_CHARGES


@<TRIPOS>ATOM
     1 C1           9.1340     4.0370    53.4220 C.3          1 CNL502   0.0000
     2 C2           7.7890     4.3000    54.0280 C.3          1 CNL502   0.0000
     3 C3           7.4260     3.3560    55.0990 C.3          1 CNL502   0.0000
     4 C4           8.3860     2.2200    55.1370 C.3          1 CNL502   0.0000
     5 C5           9.7120     2.7060    55.3810 C.3          1 CNL502   0.0000
     6 C6          10.1580     3.8060    54.4770 C.3          1 CNL502   0.0000
     7 C7           9.4750     5.0660    52.4120 C.3          1 CNL502   0.0000
     8 C8           8.3700     1.6670    53.7250 C.3          1 CNL502   0.0000
     9 C9           6.9730     1.3860    53.2710 C.3          1 CNL502   0.0000
    10 C10          9.1450     0.3920    53.5530 C.3          1 CNL502   0.0000
    11 O            8.9770     2.7500    52.7700 O.3          1 CNL502   0.0000
    12 H1           7.1000     4.2380    53.3059 H            1 CNL502   0.0000
    13 H2           7.7900     5.2245    54.4092 H            1 CNL502   0.0000
    14 H3           6.5055     3.0039    54.9297 H            1 CNL502   0.0000
    15 H4           7.4443     3.8323    55.9781 H            1 CNL502   0.0000
    16 H5           8.1157     1.5295    55.8079 H            1 CNL502   0.0000
    17 H6          10.3470     1.9408    55.2749 H            1 CNL502   0.0000
    18 H7           9.7504     3.0430    56.3217 H            1 CNL502   0.0000
    19 H8          10.2815     4.6437    55.0091 H            1 CNL502   0.0000
    20 H9          11.0252     3.5525    54.0483 H            1 CNL502   0.0000
    21 H10         10.3751     4.8672    52.0243 H            1 CNL502   0.0000
    22 H11          8.7895     5.0586    51.6840 H            1 CNL502   0.0000
    23 H12          9.4906     5.9668    52.8460 H            1 CNL502   0.0000
    24 H13          6.9919     1.0233    52.3393 H            1 CNL502   0.0000
    25 H14          6.5528     0.7147    53.8816 H            1 CNL502   0.0000
    26 H15          6.4403     2.2321    53.2886 H            1 CNL502   0.0000
    27 H16          9.0869     0.0925    52.6007 H            1 CNL502   0.0000
    28 H17         10.1025     0.5486    53.7954 H            1 CNL502   0.0000
    29 H18          8.7616    -0.3140    54.1484 H            1 CNL502   0.0000
@<TRIPOS>BOND
     1    1    2       1
     2    1    6       1
     3    1    7       1
     4    1   11       1
     5    2    3       1
     6    3    4       1
     7    4    5       1
     8    4    8       1
     9    5    6       1
    10    8    9       1
    11    8   10       1
    12    8   11       1
    13    2   12       1
    14    2   13       1
    15    3   14       1
    16    3   15       1
    17    4   16       1
    18    5   17       1
    19    5   18       1
    20    6   19       1
    21    6   20       1
    22    7   21       1
    23    7   22       1
    24    7   23       1
    25    9   24       1
    26    9   25       1
    27    9   26       1
    28   10   27       1
    29   10   28       1
    30   10   29       1
@<TRIPOS>SUBSTRUCTURE
     1 CNL502      1 GROUP             4 A     CNL     0 **** CNL A 502
