@<TRIPOS>MOLECULE
4aql_TXC_1_ligand
   44    45     1     0     0
SMALL
NO_CHARGES


@<TRIPOS>ATOM
     1 CG2         10.4530   -23.0710     0.7050 C.3          1 TXC1452   0.0000
     2 CB          10.6930   -24.3400    -0.1210 C.3          1 TXC1452   0.0000
     3 CG1         11.3800   -23.9910    -1.4620 C.3          1 TXC1452   0.0000
     4 CA           9.4310   -25.2330    -0.2950 C.3          1 TXC1452   0.0000
     5 N            9.0210   -25.2450    -1.7030 N.4          1 TXC1452   1.0000
     6 C            8.2210   -24.7970     0.5800 C.2          1 TXC1452   0.0000
     7 O            7.8020   -23.6300     0.5260 O.2          1 TXC1452   0.0000
     8 OAO          7.5770   -25.7320     1.3870 O.3          1 TXC1452   0.0000
     9 CAI          6.2210   -25.2750     1.7730 C.3          1 TXC1452   0.0000
    10 CAH          5.3810   -26.1780     2.6970 C.3          1 TXC1452   0.0000
    11 OAN          5.6840   -25.9660     4.1050 O.3          1 TXC1452   0.0000
    12 CAJ          4.6010   -26.0920     5.0830 C.3          1 TXC1452   0.0000
    13 N9           3.2440   -25.5590     4.7160 N.pl3        1 TXC1452   0.0000
    14 C8           2.8160   -24.2860     4.7750 C.2          1 TXC1452   0.0000
    15 N7           1.5240   -24.2420     4.3630 N.2          1 TXC1452   0.0000
    16 C5           1.1390   -25.4950     4.0700 C.2          1 TXC1452   0.0000
    17 C4           2.2520   -26.3420     4.2940 C.2          1 TXC1452   0.0000
    18 N3           2.1980   -27.6610     4.1010 N.pl3        1 TXC1452   0.0000
    19 C2           1.0490   -28.2300     3.6340 C.2          1 TXC1452   0.0000
    20 N2           1.0030   -29.5580     3.4360 N.pl3        1 TXC1452   0.0000
    21 N1          -0.1180   -27.4240     3.3870 N.2          1 TXC1452   0.0000
    22 C6          -0.0780   -26.0270     3.6030 C.2          1 TXC1452   0.0000
    23 O6          -1.0630   -25.2980     3.3840 O.2          1 TXC1452   0.0000
    24 HG21        10.0089   -23.3137     1.5675 H            1 TXC1452   0.0000
    25 HG22        11.3283   -22.6261     0.8944 H            1 TXC1452   0.0000
    26 HG23         9.8653   -22.4455     0.1919 H            1 TXC1452   0.0000
    27 HB          11.3520   -24.8873     0.3950 H            1 TXC1452   0.0000
    28 HG11        11.5292   -24.8283    -1.9879 H            1 TXC1452   0.0000
    29 HG12        10.7960   -23.3692    -1.9838 H            1 TXC1452   0.0000
    30 HG13        12.2590   -23.5498    -1.2813 H            1 TXC1452   0.0000
    31 HA           9.6768   -26.1675    -0.0375 H            1 TXC1452   0.0000
    32 H9           9.4791   -25.9968    -2.1772 H            1 TXC1452   0.0000
    33 H10          8.0304   -25.3689    -1.7607 H            1 TXC1452   0.0000
    34 HAI1         5.6998   -25.1486     0.9290 H            1 TXC1452   0.0000
    35 HAI2         6.3258   -24.3944     2.2351 H            1 TXC1452   0.0000
    36 HAH1         5.5678   -27.1335     2.4686 H            1 TXC1452   0.0000
    37 HAH2         4.4125   -25.9818     2.5438 H            1 TXC1452   0.0000
    38 HAJ1         4.8929   -25.6138     5.9113 H            1 TXC1452   0.0000
    39 HAJ2         4.4928   -27.0662     5.2812 H            1 TXC1452   0.0000
    40 H17          3.3597   -23.5015     5.0731 H            1 TXC1452   0.0000
    41 H18          0.1653   -29.9838     3.0940 H            1 TXC1452   0.0000
    42 H19          1.8065   -30.1207     3.6306 H            1 TXC1452   0.0000
    43 H20          9.2739   -24.3774    -2.1312 H            1 TXC1452   0.0000
    44 H21          2.9962   -28.2303     4.2978 H            1 TXC1452   0.0000
@<TRIPOS>BOND
     1    1    2       1
     2    2    3       1
     3    2    4       1
     4    4    5       1
     5    4    6       1
     6    6    7       2
     7    6    8       1
     8    8    9       1
     9    9   10       1
    10   10   11       1
    11   11   12       1
    12   12   13       1
    13   13   14       1
    14   13   17       1
    15   14   15       2
    16   15   16       1
    17   16   17       2
    18   16   22       1
    19   17   18       1
    20   18   19       1
    21   19   20       1
    22   19   21       2
    23   21   22       1
    24   22   23       2
    25    1   24       1
    26    1   25       1
    27    1   26       1
    28    2   27       1
    29    3   28       1
    30    3   29       1
    31    3   30       1
    32    4   31       1
    33    5   32       1
    34    5   33       1
    35    9   34       1
    36    9   35       1
    37   10   36       1
    38   10   37       1
    39   12   38       1
    40   12   39       1
    41   14   40       1
    42    5   43       1
    43   20   41       1
    44   20   42       1
    45   18   44       1
@<TRIPOS>SUBSTRUCTURE
     1 TXC1452     1 GROUP             4 A     TXC     0 **** TXC A1452
