@<TRIPOS>MOLECULE
2c92_TP6_3_ligand
   49    50     1     0     0
SMALL
NO_CHARGES


@<TRIPOS>ATOM
     1 O2P         10.8520     7.0670    17.2890 O.co2        1 TP6701   0.0000
     2 P            9.7270     6.7690    18.2810 P.3          1 TP6701   0.0000
     3 O3P          8.6500     5.9480    17.6120 O.co2        1 TP6701  -1.0000
     4 O1P         10.2300     6.2150    19.5920 O.co2        1 TP6701  -1.0000
     5 O27          9.0800     8.1910    18.6220 O.3          1 TP6701   0.0000
     6 C19          7.7220     8.2180    19.1450 C.2          1 TP6701   0.0000
     7 C18          6.9080     9.2380    18.9000 C.2          1 TP6701   0.0000
     8 C17          5.5670     9.1250    19.4610 C.2          1 TP6701   0.0000
     9 C16          5.2970     9.5650    20.6820 C.2          1 TP6701   0.0000
    10 C15          6.3540    10.2690    21.5030 C.3          1 TP6701   0.0000
    11 N5           5.6510    10.6730    22.7130 N.pl3        1 TP6701   0.0000
    12 C9           4.7960    11.6780    22.9370 C.2          1 TP6701   0.0000
    13 C4           4.2800    12.7640    22.0740 C.2          1 TP6701   0.0000
    14 O2           4.6200    12.8830    20.8790 O.2          1 TP6701   0.0000
    15 N3           3.4280    13.6380    22.6320 N.pl3        1 TP6701   0.0000
    16 C6           5.7040    10.0510    23.8850 C.2          1 TP6701   0.0000
    17 O4           6.4140     9.0030    24.0870 O.2          1 TP6701   0.0000
    18 N7           4.9630    10.5600    24.8620 N.pl3        1 TP6701   0.0000
    19 C8           4.3490    11.6210    24.3410 C.2          1 TP6701   0.0000
    20 N1           3.4970    12.5670    24.7710 N.pl3        1 TP6701  -1.0000
    21 C2           3.0370    13.5280    23.9340 C.2          1 TP6701   0.0000
    22 O1           2.2580    14.3670    24.3840 O.2          1 TP6701   0.0000
    23 C10          4.9410     9.9880    26.2020 C.3          1 TP6701   0.0000
    24 C11          3.7240    10.3020    27.0430 C.3          1 TP6701   0.0000
    25 O19          2.4520    10.4080    26.3910 O.3          1 TP6701   0.0000
    26 C12          3.6490     9.4780    28.3170 C.3          1 TP6701   0.0000
    27 O21          4.0970    10.5130    29.1780 O.3          1 TP6701   0.0000
    28 C13          4.5520     8.2510    28.4960 C.3          1 TP6701   0.0000
    29 O23          4.1440     7.1490    27.6620 O.3          1 TP6701   0.0000
    30 C14          4.5130     7.8140    29.9620 C.3          1 TP6701   0.0000
    31 O26          3.1620     7.5810    30.4000 O.3          1 TP6701   0.0000
    32 H1           7.3954     7.4529    19.7000 H            1 TP6701   0.0000
    33 H2           7.1961    10.0324    18.3653 H            1 TP6701   0.0000
    34 H3           4.8392     8.7089    18.9159 H            1 TP6701   0.0000
    35 H4           4.3832     9.4297    21.0649 H            1 TP6701   0.0000
    36 H5           6.7096    11.0665    21.0157 H            1 TP6701   0.0000
    37 H6           7.1071     9.6480    21.7203 H            1 TP6701   0.0000
    38 H7           3.0703    14.3900    22.0783 H            1 TP6701   0.0000
    39 H8           5.7451    10.3260    26.6911 H            1 TP6701   0.0000
    40 H9           5.0001     8.9940    26.1103 H            1 TP6701   0.0000
    41 H10          3.8981    11.2300    27.3724 H            1 TP6701   0.0000
    42 H11          2.4868    11.1386    25.7091 H            1 TP6701   0.0000
    43 H12          2.6991     9.2426    28.5225 H            1 TP6701   0.0000
    44 H13          3.3923    10.7073    29.8604 H            1 TP6701   0.0000
    45 H14          5.4902     8.5040    28.2598 H            1 TP6701   0.0000
    46 H15          4.3818     6.2867    28.1091 H            1 TP6701   0.0000
    47 H16          4.9199     8.5316    30.5272 H            1 TP6701   0.0000
    48 H17          5.0394     6.9700    30.0649 H            1 TP6701   0.0000
    49 H18          2.7801     8.4286    30.7684 H            1 TP6701   0.0000
@<TRIPOS>BOND
     1    1    2      ar
     2    2    3      ar
     3    2    4      ar
     4    2    5       1
     5    5    6       1
     6    6    7       2
     7    7    8       1
     8    8    9       2
     9    9   10       1
    10   10   11       1
    11   11   12       1
    12   11   16       1
    13   12   13       1
    14   12   19       2
    15   13   14       2
    16   13   15       1
    17   15   21       1
    18   16   17       2
    19   16   18       1
    20   18   19       1
    21   18   23       1
    22   19   20       1
    23   20   21       1
    24   21   22       2
    25   23   24       1
    26   24   25       1
    27   24   26       1
    28   26   27       1
    29   26   28       1
    30   28   29       1
    31   28   30       1
    32   30   31       1
    33   31   49       1
    34   30   48       1
    35    6   32       1
    36    7   33       1
    37    8   34       1
    38    9   35       1
    39   10   36       1
    40   10   37       1
    41   15   38       1
    42   30   47       1
    43   23   39       1
    44   23   40       1
    45   24   41       1
    46   25   42       1
    47   26   43       1
    48   27   44       1
    49   28   45       1
    50   29   46       1
@<TRIPOS>SUBSTRUCTURE
     1 TP6701      1 GROUP             4 C     TP6     0 **** TP6 C 701
