@<TRIPOS>MOLECULE
4ew2_DXY_1_ligand
   58    59     1     0     0
SMALL
NO_CHARGES


@<TRIPOS>ATOM
     1 OE1          0.1580    72.7980    89.6760 O.co2        1 DXY304   0.0000
     2 CD           1.1370    72.2070    89.1180 C.2          1 DXY304   0.0000
     3 OE2          1.4810    72.3630    87.9170 O.co2        1 DXY304  -1.0000
     4 CG           2.0140    71.2030    89.9560 C.3          1 DXY304   0.0000
     5 CB           3.0640    71.9400    90.8220 C.3          1 DXY304   0.0000
     6 CA           3.6760    71.1160    91.9850 C.3          1 DXY304   0.0000
     7 C            3.8210    72.0660    93.1760 C.2          1 DXY304   0.0000
     8 OXT          2.9630    72.0440    94.0700 O.co2        1 DXY304   0.0000
     9 O            4.7900    72.8460    93.1420 O.co2        1 DXY304  -1.0000
    10 N            2.9240    69.8830    92.3040 N.am         1 DXY304   0.0000
    11 CAY          3.5490    68.7090    92.4290 C.2          1 DXY304   0.0000
    12 OAF          4.7540    68.5770    92.2380 O.2          1 DXY304   0.0000
    13 CBB          2.6400    67.5460    92.7120 C.ar         1 DXY304   0.0000
    14 CAK          3.0090    66.2100    92.8700 C.ar         1 DXY304   0.0000
    15 CAM          2.0640    65.2150    93.1210 C.ar         1 DXY304   0.0000
    16 CAJ          1.3280    67.8730    92.8370 C.ar         1 DXY304   0.0000
    17 CAL          0.3890    66.8970    93.0840 C.ar         1 DXY304   0.0000
    18 CBC          0.7210    65.5590    93.2340 C.ar         1 DXY304   0.0000
    19 CBG         -0.5080    64.6310    93.4820 C.3          1 DXY304   0.0000
    20 SAV         -0.7540    63.4380    92.0950 S.3          1 DXY304   0.0000
    21 CAA          0.8030    63.2830    91.2150 C.3          1 DXY304   0.0000
    22 CAQ         -0.6460    63.9850    94.8880 C.3          1 DXY304   0.0000
    23 CAN         -0.3510    64.9320    96.0420 C.3          1 DXY304   0.0000
    24 CAP         -1.2520    64.8750    97.3240 C.3          1 DXY304   0.0000
    25 CBD         -0.4360    65.5820    98.3770 C.2          1 DXY304   0.0000
    26 CBE          0.3410    64.8820    99.2910 C.2          1 DXY304   0.0000
    27 OAG          0.3580    63.6560    99.3360 O.2          1 DXY304   0.0000
    28 NAU          1.0970    65.5360   100.1940 N.pl3        1 DXY304   0.0000
    29 CAZ          1.1440    66.9140   100.2110 C.2          1 DXY304   0.0000
    30 NAB          1.9200    67.4790   101.1010 N.pl3        1 DXY304   0.0000
    31 NAS          0.4090    67.6130    99.3270 N.2          1 DXY304   0.0000
    32 CBA         -0.3740    66.9950    98.4400 C.2          1 DXY304   0.0000
    33 NAC         -1.0740    67.7340    97.5670 N.pl3        1 DXY304   0.0000
    34 HG1          2.4882    70.5858    89.3282 H            1 DXY304   0.0000
    35 HG2          1.4147    70.6727    90.5557 H            1 DXY304   0.0000
    36 HB1          2.6251    72.7477    91.2157 H            1 DXY304   0.0000
    37 HB2          3.8111    72.2258    90.2218 H            1 DXY304   0.0000
    38 HA           4.5965    70.8421    91.7063 H            1 DXY304   0.0000
    39 H6           1.9328    69.9289    92.4280 H            1 DXY304   0.0000
    40 HAK          3.9747    65.9594    92.8017 H            1 DXY304   0.0000
    41 HAM          2.3499    64.2618    93.2189 H            1 DXY304   0.0000
    42 HAJ          1.0425    68.8273    92.7492 H            1 DXY304   0.0000
    43 HAL         -0.5719    67.1639    93.1583 H            1 DXY304   0.0000
    44 HBG         -1.2944    65.2453    93.4176 H            1 DXY304   0.0000
    45 HAA1         0.6948    62.6401    90.4568 H            1 DXY304   0.0000
    46 HAA2         1.0745    64.1768    90.8580 H            1 DXY304   0.0000
    47 HAA3         1.5070    62.9458    91.8400 H            1 DXY304   0.0000
    48 HAQ1        -0.0096    63.2156    94.9433 H            1 DXY304   0.0000
    49 HAQ2        -1.5830    63.6505    94.9887 H            1 DXY304   0.0000
    50 HAN1        -0.4145    65.8623    95.6807 H            1 DXY304   0.0000
    51 HAN2         0.5877    64.7519    96.3358 H            1 DXY304   0.0000
    52 HAP1        -1.4315    63.9279    97.5902 H            1 DXY304   0.0000
    53 HAP2        -2.1194    65.3480    97.1698 H            1 DXY304   0.0000
    54 HAU          1.6309    65.0156   100.8604 H            1 DXY304   0.0000
    55 HAB1         1.9837    68.4759   101.1480 H            1 DXY304   0.0000
    56 HAB2         2.4491    66.9138   101.7339 H            1 DXY304   0.0000
    57 HAC1        -1.0315    68.7322    97.6099 H            1 DXY304   0.0000
    58 HAC2        -1.6385    67.2869    96.8731 H            1 DXY304   0.0000
@<TRIPOS>BOND
     1    1    2      ar
     2    2    3      ar
     3    2    4       1
     4    4    5       1
     5    5    6       1
     6    6    7       1
     7    6   10       1
     8    7    8      ar
     9    7    9      ar
    10   10   11      am
    11   11   12       2
    12   11   13       1
    13   13   14      ar
    14   13   16      ar
    15   14   15      ar
    16   15   18      ar
    17   16   17      ar
    18   17   18      ar
    19   18   19       1
    20   19   20       1
    21   19   22       1
    22   20   21       1
    23   22   23       1
    24   23   24       1
    25   24   25       1
    26   25   26       1
    27   25   32       2
    28   26   27       2
    29   26   28       1
    30   28   29       1
    31   29   30       1
    32   29   31       2
    33   31   32       1
    34   32   33       1
    35   33   58       1
    36    4   34       1
    37    4   35       1
    38    5   36       1
    39    5   37       1
    40    6   38       1
    41   33   57       1
    42   10   39       1
    43   14   40       1
    44   15   41       1
    45   16   42       1
    46   17   43       1
    47   19   44       1
    48   21   45       1
    49   21   46       1
    50   21   47       1
    51   22   48       1
    52   22   49       1
    53   23   50       1
    54   23   51       1
    55   24   52       1
    56   24   53       1
    57   28   54       1
    58   30   55       1
    59   30   56       1
@<TRIPOS>SUBSTRUCTURE
     1 DXY304      1 GROUP             4 A     DXY     0 **** DXY A 304
