@<TRIPOS>MOLECULE
1ffy_MRC_1_ligand
   78    79     1     0     0
SMALL
NO_CHARGES


@<TRIPOS>ATOM
     1 C1          30.9940    82.7690    82.1390 C.2          1 MRC1993   0.0000
     2 C2          29.9490    82.3820    81.2800 C.2          1 MRC1993   0.0000
     3 C3          28.8090    83.0900    80.8750 C.2          1 MRC1993   0.0000
     4 C4          27.7940    82.5110    79.8860 C.3          1 MRC1993   0.0000
     5 C5          26.2680    82.3600    79.9650 C.3          1 MRC1993   0.0000
     6 C6          25.2560    81.8320    78.9110 C.3          1 MRC1993   0.0000
     7 C7          23.8320    81.8670    79.5560 C.3          1 MRC1993   0.0000
     8 C8          23.7580    81.0560    80.9270 C.3          1 MRC1993   0.0000
     9 C9          23.8200    79.4670    80.4190 C.3          1 MRC1993   0.0000
    10 C10         22.8330    78.6100    79.5500 C.3          1 MRC1993   0.0000
    11 C11         22.9990    78.5930    78.1930 C.3          1 MRC1993   0.0000
    12 C12         21.7330    78.8390    77.3050 C.3          1 MRC1993   0.0000
    13 C13         21.7790    78.0520    75.8210 C.3          1 MRC1993   0.0000
    14 C14         20.3230    77.6620    75.5370 C.3          1 MRC1993   0.0000
    15 C15         28.4560    84.5230    81.3480 C.3          1 MRC1993   0.0000
    16 C16         24.8990    81.6340    81.8140 C.3          1 MRC1993   0.0000
    17 C1'         38.5610    75.4010    83.1880 C.2          1 MRC1993   0.0000
    18 O1P         39.3670    74.7050    83.8410 O.co2        1 MRC1993   0.0000
    19 O1Q         38.9630    76.0340    82.1850 O.co2        1 MRC1993  -1.0000
    20 C2'         37.0740    75.4800    83.6150 C.3          1 MRC1993   0.0000
    21 C3'         36.9150    75.9970    85.0710 C.3          1 MRC1993   0.0000
    22 C4'         35.5130    76.5880    85.3230 C.3          1 MRC1993   0.0000
    23 C5'         35.4430    78.0680    84.8970 C.3          1 MRC1993   0.0000
    24 C6'         34.0330    78.6310    85.1670 C.3          1 MRC1993   0.0000
    25 C7'         33.4900    79.3560    83.9290 C.3          1 MRC1993   0.0000
    26 C8'         33.4540    80.8860    84.1510 C.3          1 MRC1993   0.0000
    27 C9'         32.0820    81.5190    83.8030 C.3          1 MRC1993   0.0000
    28 O1A         32.0560    81.8800    82.4130 O.3          1 MRC1993   0.0000
    29 O1B         31.0440    83.8850    82.6670 O.2          1 MRC1993   0.0000
    30 O5          26.2090    81.6250    81.1830 O.3          1 MRC1993   0.0000
    31 O7          23.5030    83.2240    79.7350 O.3          1 MRC1993   0.0000
    32 O6          25.3990    82.7870    77.8210 O.3          1 MRC1993   0.0000
    33 O10         22.8680    77.3840    78.9810 O.3          1 MRC1993   0.0000
    34 C17         21.3950    80.4050    77.0270 C.3          1 MRC1993   0.0000
    35 O13         22.5240    76.8680    75.9870 O.3          1 MRC1993   0.0000
    36 H1          30.0323    81.4607    80.9002 H            1 MRC1993   0.0000
    37 H2          28.1171    81.5769    79.7344 H            1 MRC1993   0.0000
    38 H3          27.9361    83.0516    79.0568 H            1 MRC1993   0.0000
    39 H4          25.9345    83.2723    80.2025 H            1 MRC1993   0.0000
    40 H5          25.4945    80.9074    78.6138 H            1 MRC1993   0.0000
    41 H6          23.1812    81.4641    78.9125 H            1 MRC1993   0.0000
    42 H7          22.8767    81.2289    81.3669 H            1 MRC1993   0.0000
    43 H8          23.8952    78.9492    81.2712 H            1 MRC1993   0.0000
    44 H9          24.6840    79.4124    79.9184 H            1 MRC1993   0.0000
    45 H10         21.8887    78.8529    79.7722 H            1 MRC1993   0.0000
    46 H11         23.8971    78.8242    77.8188 H            1 MRC1993   0.0000
    47 H12         20.9538    78.4619    77.8056 H            1 MRC1993   0.0000
    48 H13         22.1573    78.6338    75.1010 H            1 MRC1993   0.0000
    49 H14         20.2709    77.1840    74.6602 H            1 MRC1993   0.0000
    50 H15         19.9909    77.0614    76.2643 H            1 MRC1993   0.0000
    51 H16         19.7580    78.4863    75.5014 H            1 MRC1993   0.0000
    52 H17         27.5982    84.8124    80.9233 H            1 MRC1993   0.0000
    53 H18         28.3544    84.5301    82.3428 H            1 MRC1993   0.0000
    54 H19         29.1876    85.1511    81.0831 H            1 MRC1993   0.0000
    55 H20         24.9509    81.0901    82.6516 H            1 MRC1993   0.0000
    56 H21         24.6686    82.5795    82.0442 H            1 MRC1993   0.0000
    57 H2'1        36.6703    74.5674    83.5503 H            1 MRC1993   0.0000
    58 H2'2        36.5930    76.1018    82.9970 H            1 MRC1993   0.0000
    59 H3'1        37.5995    76.7065    85.2385 H            1 MRC1993   0.0000
    60 H3'2        37.0628    75.2356    85.7022 H            1 MRC1993   0.0000
    61 H4'1        35.3012    76.5195    86.2979 H            1 MRC1993   0.0000
    62 H4'2        34.8405    76.0660    84.7983 H            1 MRC1993   0.0000
    63 H5'1        35.6470    78.1412    83.9208 H            1 MRC1993   0.0000
    64 H5'2        36.1147    78.5944    85.4183 H            1 MRC1993   0.0000
    65 H6'1        34.0778    79.2749    85.9308 H            1 MRC1993   0.0000
    66 H6'2        33.4186    77.8777    85.4017 H            1 MRC1993   0.0000
    67 H7'1        32.5631    79.0314    83.7408 H            1 MRC1993   0.0000
    68 H7'2        34.0794    79.1532    83.1470 H            1 MRC1993   0.0000
    69 H8'1        34.1543    81.3077    83.5751 H            1 MRC1993   0.0000
    70 H8'2        33.6561    81.0729    85.1124 H            1 MRC1993   0.0000
    71 H9'1        31.9414    82.3364    84.3617 H            1 MRC1993   0.0000
    72 H9'2        31.3542    80.8589    83.9890 H            1 MRC1993   0.0000
    73 H38         22.5118    83.3383    79.6685 H            1 MRC1993   0.0000
    74 H39         26.3425    82.7760    77.4898 H            1 MRC1993   0.0000
    75 H40         20.5771    80.4732    76.4558 H            1 MRC1993   0.0000
    76 H41         21.2337    80.8707    77.8971 H            1 MRC1993   0.0000
    77 H42         22.1664    80.8342    76.5572 H            1 MRC1993   0.0000
    78 H43         22.0828    76.2901    76.6736 H            1 MRC1993   0.0000
@<TRIPOS>BOND
     1    1    2       1
     2    1   28       1
     3    1   29       2
     4    2    3       2
     5    3    4       1
     6    3   15       1
     7    4    5       1
     8    5    6       1
     9    5   30       1
    10    6    7       1
    11    6   32       1
    12    7    8       1
    13    7   31       1
    14    8    9       1
    15    8   16       1
    16    9   10       1
    17   10   11       1
    18   10   33       1
    19   11   12       1
    20   11   33       1
    21   12   13       1
    22   12   34       1
    23   13   14       1
    24   13   35       1
    25   16   30       1
    26   17   18      ar
    27   17   19      ar
    28   17   20       1
    29   20   21       1
    30   21   22       1
    31   22   23       1
    32   23   24       1
    33   24   25       1
    34   25   26       1
    35   26   27       1
    36   27   28       1
    37    2   36       1
    38    4   37       1
    39    4   38       1
    40    5   39       1
    41    6   40       1
    42    7   41       1
    43    8   42       1
    44    9   43       1
    45    9   44       1
    46   10   45       1
    47   11   46       1
    48   12   47       1
    49   13   48       1
    50   14   49       1
    51   14   50       1
    52   14   51       1
    53   15   52       1
    54   15   53       1
    55   15   54       1
    56   16   55       1
    57   16   56       1
    58   35   78       1
    59   20   57       1
    60   20   58       1
    61   21   59       1
    62   21   60       1
    63   22   61       1
    64   22   62       1
    65   23   63       1
    66   23   64       1
    67   24   65       1
    68   24   66       1
    69   25   67       1
    70   25   68       1
    71   26   69       1
    72   26   70       1
    73   27   71       1
    74   27   72       1
    75   31   73       1
    76   32   74       1
    77   34   75       1
    78   34   76       1
    79   34   77       1
@<TRIPOS>SUBSTRUCTURE
     1 MRC1993     1 GROUP             4 A     MRC     0 **** MRC A1993
