@<TRIPOS>MOLECULE
4qtn_NNR_3_ligand
   33    34     1     0     0
SMALL
NO_CHARGES


@<TRIPOS>ATOM
     1 O2R         68.4630    41.5140    59.0850 O.3          1 NNR301   0.0000
     2 C2R         68.4530    42.1550    57.6930 C.3          1 NNR301   0.0000
     3 C3R         68.4040    41.0650    56.6160 C.3          1 NNR301   0.0000
     4 O3R         68.9870    39.9360    57.0930 O.3          1 NNR301   0.0000
     5 C4R         69.2330    41.6030    55.4690 C.3          1 NNR301   0.0000
     6 C5R         68.3500    42.3460    54.3820 C.3          1 NNR301   0.0000
     7 O5R         69.2350    43.1460    53.5280 O.3          1 NNR301   0.0000
     8 O4R         70.0830    42.4280    56.0130 O.3          1 NNR301   0.0000
     9 C1R         69.5340    42.8390    57.4670 C.3          1 NNR301   0.0000
    10 N1          69.2870    44.2930    57.5150 N.ar         1 NNR301   1.0000
    11 C2          69.2070    45.0520    56.3380 C.ar         1 NNR301   0.0000
    12 C6          69.1250    44.9190    58.7290 C.ar         1 NNR301   0.0000
    13 C5          68.8730    46.3120    58.7730 C.ar         1 NNR301   0.0000
    14 C4          68.8130    47.0520    57.6120 C.ar         1 NNR301   0.0000
    15 C3          68.9600    46.4420    56.4030 C.ar         1 NNR301   0.0000
    16 C7          68.8440    47.2850    55.1450 C.2          1 NNR301   0.0000
    17 O7          68.2226    48.3060    55.1491 O.2          1 NNR301   0.0000
    18 N7          69.4782    46.8399    53.9335 N.am         1 NNR301   0.0000
    19 H2R         68.4950    42.2306    59.7817 H            1 NNR301   0.0000
    20 H2          67.6546    42.7505    57.6039 H            1 NNR301   0.0000
    21 H3R         67.4632    40.8883    56.3268 H            1 NNR301   0.0000
    22 H4          68.4953    39.6250    57.9064 H            1 NNR301   0.0000
    23 H4R         69.7299    40.8508    55.0363 H            1 NNR301   0.0000
    24 H5R1        67.6891    42.9437    54.8359 H            1 NNR301   0.0000
    25 H5R2        67.8632    41.6726    53.8256 H            1 NNR301   0.0000
    26 H5R         68.6909    43.6211    52.8365 H            1 NNR301   0.0000
    27 H1R         70.2204    42.6015    58.1544 H            1 NNR301   0.0000
    28 H10         69.3252    44.6080    55.4498 H            1 NNR301   0.0000
    29 H11         69.1849    44.3927    59.5772 H            1 NNR301   0.0000
    30 H12         68.7373    46.7630    59.6552 H            1 NNR301   0.0000
    31 H13         68.6611    48.0394    57.6572 H            1 NNR301   0.0000
    32 H14         69.3902    47.3791    53.0959 H            1 NNR301   0.0000
    33 H15         70.0071    45.9913    53.9287 H            1 NNR301   0.0000
@<TRIPOS>BOND
     1    1    2       1
     2    2    3       1
     3    2    9       1
     4    3    4       1
     5    3    5       1
     6    5    6       1
     7    5    8       1
     8    6    7       1
     9    8    9       1
    10    9   10       1
    11   10   11      ar
    12   10   12      ar
    13   11   15      ar
    14   12   13      ar
    15   13   14      ar
    16   14   15      ar
    17   15   16       1
    18   16   17       2
    19   16   18      am
    20    1   19       1
    21    2   20       1
    22    3   21       1
    23    4   22       1
    24    5   23       1
    25    6   24       1
    26    6   25       1
    27    7   26       1
    28    9   27       1
    29   11   28       1
    30   12   29       1
    31   13   30       1
    32   14   31       1
    33   18   32       1
    34   18   33       1
@<TRIPOS>SUBSTRUCTURE
     1 NNR301      1 GROUP             4 C     NNR     0 **** NNR C 301
