@<TRIPOS>MOLECULE
3r5z_F42_2_ligand
   85    87     1     0     0
SMALL
NO_CHARGES


@<TRIPOS>ATOM
     1 N1          23.5550    26.0040    14.3280 N.2          1 F42201   0.0000
     2 C2          22.2870    26.5090    14.4640 C.2          1 F42201   0.0000
     3 O2          22.1400    27.5880    15.0540 O.2          1 F42201   0.0000
     4 N3          21.1980    25.9590    13.8760 N.pl3        1 F42201   0.0000
     5 C4          21.2650    24.8220    13.1750 C.2          1 F42201   0.0000
     6 O4          20.2760    24.3010    12.5980 O.2          1 F42201   0.0000
     7 C4A         22.5850    24.1920    12.9900 C.2          1 F42201   0.0000
     8 C5          22.7730    23.0210    12.2410 C.2          1 F42201   0.0000
     9 C5A         24.0620    22.4950    12.0600 C.ar         1 F42201   0.0000
    10 C6          24.2320    21.3480    11.2920 C.ar         1 F42201   0.0000
    11 C7          25.5390    20.8550    11.0910 C.ar         1 F42201   0.0000
    12 C8          26.6100    21.4770    11.7070 C.ar         1 F42201   0.0000
    13 O8M         27.8770    21.0330    11.4640 O.3          1 F42201   0.0000
    14 C9          26.4340    22.6130    12.5010 C.ar         1 F42201   0.0000
    15 C9A         25.1450    23.1230    12.6620 C.ar         1 F42201   0.0000
    16 N10         24.9760    24.2810    13.4480 N.pl3        1 F42201   0.0000
    17 C10         23.7270    24.8590    13.6390 C.2          1 F42201   0.0000
    18 C1'         26.0700    25.0000    14.1020 C.3          1 F42201   0.0000
    19 C2'         26.5010    26.1750    13.2650 C.3          1 F42201   0.0000
    20 O2'         27.2160    25.6740    12.1250 O.3          1 F42201   0.0000
    21 C3'         27.3800    27.1600    14.0430 C.3          1 F42201   0.0000
    22 O3'         28.5460    26.4540    14.5140 O.3          1 F42201   0.0000
    23 C4'         26.7150    27.7530    15.2720 C.3          1 F42201   0.0000
    24 O4'         25.3810    28.1910    14.9780 O.3          1 F42201   0.0000
    25 C5'         27.6080    28.9150    15.6310 C.3          1 F42201   0.0000
    26 O5'         27.2520    29.4100    16.8920 O.3          1 F42201   0.0000
    27 P           28.2800    30.5170    17.5540 P.3          1 F42201   0.0000
    28 O1P         29.7540    29.8970    17.6160 O.co2        1 F42201   0.0000
    29 O2P         27.6100    30.8900    19.1390 O.co2        1 F42201  -1.0000
    30 O3P         28.2710    31.7200    16.5080 O.3          1 F42201   0.0000
    31 C1I         28.7210    31.2610    15.1800 C.3          1 F42201   0.0000
    32 C2I         28.1980    31.9770    13.9080 C.3          1 F42201   0.0000
    33 C3I         30.2420    31.0490    15.1010 C.2          1 F42201   0.0000
    34 O3I         30.6580    29.9100    15.0010 O.2          1 F42201   0.0000
    35 N1H         31.1240    32.0680    15.1030 N.am         1 F42201   0.0000
    36 C1H         31.7730    32.5220    13.8620 C.3          1 F42201   0.0000
    37 C2H         33.0700    31.8560    13.4840 C.2          1 F42201   0.0000
    38 O2U         33.2070    31.2530    12.3020 O.co2        1 F42201   0.0000
    39 O2T         34.0360    31.8970    14.2280 O.co2        1 F42201  -1.0000
    40 C3H         32.1210    34.0010    13.9160 C.3          1 F42201   0.0000
    41 C4H         32.5070    34.4500    12.5120 C.3          1 F42201   0.0000
    42 C5H         31.7400    35.7380    12.3100 C.2          1 F42201   0.0000
    43 O5H         30.6710    35.7290    11.7080 O.2          1 F42201   0.0000
    44 N1G         32.2670    36.8360    12.8640 N.am         1 F42201   0.0000
    45 C1G         31.5470    38.0970    12.7950 C.3          1 F42201   0.0000
    46 C2G         32.1860    38.9640    11.7600 C.2          1 F42201   0.0000
    47 O2V         31.9290    40.2810    11.6870 O.co2        1 F42201   0.0000
    48 O2W         32.9810    38.4630    10.9790 O.co2        1 F42201  -1.0000
    49 C3G         31.5120    38.8130    14.1530 C.3          1 F42201   0.0000
    50 C4G         32.8350    38.7400    14.9140 C.3          1 F42201   0.0000
    51 C5G         32.6710    39.3380    16.3010 C.2          1 F42201   0.0000
    52 O6G         31.5570    39.1240    17.0000 O.co2        1 F42201   0.0000
    53 O7G         33.5530    40.0260    16.8090 O.co2        1 F42201  -1.0000
    54 H1          20.3146    26.4182    13.9691 H            1 F42201   0.0000
    55 H2          21.9852    22.5587    11.8341 H            1 F42201   0.0000
    56 H3          23.4438    20.8819    10.8902 H            1 F42201   0.0000
    57 H4          25.6903    20.0587    10.5053 H            1 F42201   0.0000
    58 H8M         28.0266    20.2627    10.8441 H            1 F42201   0.0000
    59 H6          27.2155    23.0516    12.9448 H            1 F42201   0.0000
    60 H1'1        26.8453    24.3802    14.2236 H            1 F42201   0.0000
    61 H1'2        25.7616    25.3273    14.9952 H            1 F42201   0.0000
    62 H2'         25.6853    26.6570    12.9452 H            1 F42201   0.0000
    63 H10         26.5748    25.5085    11.3757 H            1 F42201   0.0000
    64 H3'         27.6659    27.8994    13.4335 H            1 F42201   0.0000
    65 H12         28.7688    25.7161    13.8770 H            1 F42201   0.0000
    66 H4'         26.7031    27.0839    16.0151 H            1 F42201   0.0000
    67 H14         24.8364    27.4133    14.6640 H            1 F42201   0.0000
    68 H5'1        27.5037    29.6381    14.9482 H            1 F42201   0.0000
    69 H5'2        28.5600    28.6095    15.6502 H            1 F42201   0.0000
    70 H1I         28.3461    30.3369    15.1061 H            1 F42201   0.0000
    71 H2I1        28.5955    31.5481    13.0968 H            1 F42201   0.0000
    72 H2I2        27.2015    31.9030    13.8697 H            1 F42201   0.0000
    73 H2I3        28.4597    32.9417    13.9371 H            1 F42201   0.0000
    74 H1H         31.3421    32.5252    15.9652 H            1 F42201   0.0000
    75 H22         31.1275    32.3858    13.1105 H            1 F42201   0.0000
    76 H3H1        32.8883    34.1458    14.5408 H            1 F42201   0.0000
    77 H3H2        31.3297    34.5237    14.2331 H            1 F42201   0.0000
    78 H4H1        32.2367    33.7663    11.8342 H            1 F42201   0.0000
    79 H4H2        33.4921    34.6103    12.4492 H            1 F42201   0.0000
    80 H1G         33.1536    36.7893    13.3242 H            1 F42201   0.0000
    81 H28         30.6063    37.9088    12.5127 H            1 F42201   0.0000
    82 H3G1        30.7999    38.3918    14.7148 H            1 F42201   0.0000
    83 H3G2        31.2886    39.7753    13.9979 H            1 F42201   0.0000
    84 H4G1        33.5335    39.2514    14.4135 H            1 F42201   0.0000
    85 H4G2        33.1170    37.7842    14.9968 H            1 F42201   0.0000
@<TRIPOS>BOND
     1    1    2       1
     2    1   17       2
     3    2    3       2
     4    2    4       1
     5    4    5       1
     6    5    6       2
     7    5    7       1
     8    7    8       2
     9    7   17       1
    10    8    9       1
    11    9   10      ar
    12    9   15      ar
    13   10   11      ar
    14   11   12      ar
    15   12   13       1
    16   12   14      ar
    17   14   15      ar
    18   15   16       1
    19   16   17       1
    20   16   18       1
    21   18   19       1
    22   19   20       1
    23   19   21       1
    24   21   22       1
    25   21   23       1
    26   23   24       1
    27   23   25       1
    28   25   26       1
    29   26   27       1
    30   27   28      ar
    31   27   29      ar
    32   27   30       1
    33   30   31       1
    34   31   32       1
    35   31   33       1
    36   33   34       2
    37   33   35      am
    38   35   36       1
    39   36   37       1
    40   36   40       1
    41   37   38      ar
    42   37   39      ar
    43   40   41       1
    44   41   42       1
    45   42   43       2
    46   42   44      am
    47   44   45       1
    48   45   46       1
    49   45   49       1
    50   46   47      ar
    51   46   48      ar
    52   49   50       1
    53   50   51       1
    54   51   52      ar
    55   51   53      ar
    56    4   54       1
    57    8   55       1
    58   10   56       1
    59   11   57       1
    60   13   58       1
    61   14   59       1
    62   18   60       1
    63   18   61       1
    64   19   62       1
    65   20   63       1
    66   21   64       1
    67   22   65       1
    68   23   66       1
    69   24   67       1
    70   25   68       1
    71   25   69       1
    72   49   83       1
    73   31   70       1
    74   32   71       1
    75   32   72       1
    76   32   73       1
    77   35   74       1
    78   36   75       1
    79   50   85       1
    80   40   76       1
    81   40   77       1
    82   41   78       1
    83   41   79       1
    84   44   80       1
    85   45   81       1
    86   50   84       1
    87   49   82       1
@<TRIPOS>SUBSTRUCTURE
     1 F42201      1 GROUP             4 B     F42     0 **** F42 B 201
