@<TRIPOS>MOLECULE
3fvq_ATP_1_ligand
   43    45     1     0     0
SMALL
NO_CHARGES


@<TRIPOS>ATOM
     1 PG         -31.4720   -13.0710    16.9170 P.3          1 ATP401   0.0000
     2 O1G        -30.6640   -14.0780    17.6980 O.co2        1 ATP401   0.0000
     3 O2G        -32.6810   -12.5800    17.7100 O.co2        1 ATP401  -1.0000
     4 O3G        -30.7180   -11.9950    16.1980 O.co2        1 ATP401  -1.0000
     5 PB         -31.6220   -14.9590    14.6960 P.3          1 ATP401   0.0000
     6 O1B        -31.4450   -14.2940    13.3760 O.co2        1 ATP401   0.0000
     7 O2B        -30.5220   -15.8730    15.1790 O.co2        1 ATP401  -1.0000
     8 O3B        -32.2710   -13.9450    15.7900 O.3          1 ATP401   0.0000
     9 PA         -33.1830   -17.4440    14.6520 P.3          1 ATP401   0.0000
    10 O1A        -32.9670   -17.8950    16.0630 O.co2        1 ATP401   0.0000
    11 O2A        -32.5370   -18.1120    13.5160 O.co2        1 ATP401  -1.0000
    12 O3A        -32.9950   -15.8430    14.4850 O.3          1 ATP401   0.0000
    13 O5'        -34.7780   -17.5390    14.3830 O.3          1 ATP401   0.0000
    14 C5'        -35.3030   -17.1780    13.0960 C.3          1 ATP401   0.0000
    15 C4'        -36.8300   -17.0700    13.2190 C.3          1 ATP401   0.0000
    16 O4'        -37.3270   -18.3730    13.4650 O.3          1 ATP401   0.0000
    17 C3'        -37.2980   -16.2140    14.3820 C.3          1 ATP401   0.0000
    18 O3'        -38.2530   -15.2380    13.9100 O.3          1 ATP401   0.0000
    19 C2'        -37.9810   -17.1720    15.3350 C.3          1 ATP401   0.0000
    20 O2'        -39.1370   -16.5590    15.8390 O.3          1 ATP401   0.0000
    21 C1'        -38.3740   -18.3270    14.4300 C.3          1 ATP401   0.0000
    22 N9         -38.4970   -19.6120    15.1320 N.pl3        1 ATP401   0.0000
    23 C8         -37.5670   -20.3300    15.7920 C.2          1 ATP401   0.0000
    24 N7         -38.1060   -21.4850    16.2850 N.2          1 ATP401   0.0000
    25 C5         -39.4040   -21.4980    15.9170 C.ar         1 ATP401   0.0000
    26 C6         -40.5620   -22.4050    16.0570 C.ar         1 ATP401   0.0000
    27 N6         -40.4660   -23.5780    16.7540 N.pl3        1 ATP401   0.0000
    28 N1         -41.7230   -22.0070    15.4990 N.ar         1 ATP401   0.0000
    29 C2         -41.8780   -20.8770    14.8080 C.ar         1 ATP401   0.0000
    30 N3         -40.8600   -20.0070    14.6210 N.ar         1 ATP401   0.0000
    31 C4         -39.6420   -20.2700    15.1560 C.ar         1 ATP401   0.0000
    32 H5'1       -35.0655   -17.8793    12.4239 H            1 ATP401   0.0000
    33 H5'2       -34.9227   -16.2988    12.8089 H            1 ATP401   0.0000
    34 H4'        -37.2134   -16.7181    12.3651 H            1 ATP401   0.0000
    35 H3'        -36.5226   -15.7650    14.8261 H            1 ATP401   0.0000
    36 H5         -37.8217   -14.6559    13.2207 H            1 ATP401   0.0000
    37 H2'        -37.3677   -17.4668    16.0678 H            1 ATP401   0.0000
    38 H7         -38.9114   -16.0580    16.6746 H            1 ATP401   0.0000
    39 H1'        -39.2378   -18.1131    13.9738 H            1 ATP401   0.0000
    40 H9         -36.6123   -20.0550    15.9056 H            1 ATP401   0.0000
    41 H10        -41.2623   -24.1773    16.8364 H            1 ATP401   0.0000
    42 H11        -39.5995   -23.8363    17.1812 H            1 ATP401   0.0000
    43 H12        -42.7738   -20.6668    14.4165 H            1 ATP401   0.0000
@<TRIPOS>BOND
     1    1    2      ar
     2    1    3      ar
     3    1    4      ar
     4    1    8       1
     5    5    6      ar
     6    5    7      ar
     7    5    8       1
     8    5   12       1
     9    9   10      ar
    10    9   11      ar
    11    9   12       1
    12    9   13       1
    13   13   14       1
    14   14   15       1
    15   15   16       1
    16   15   17       1
    17   16   21       1
    18   17   18       1
    19   17   19       1
    20   19   20       1
    21   19   21       1
    22   21   22       1
    23   22   23       1
    24   22   31       1
    25   23   24       2
    26   24   25       1
    27   25   26      ar
    28   25   31      ar
    29   26   27       1
    30   26   28      ar
    31   28   29      ar
    32   29   30      ar
    33   30   31      ar
    34   29   43       1
    35   27   42       1
    36   27   41       1
    37   23   40       1
    38   14   32       1
    39   14   33       1
    40   15   34       1
    41   17   35       1
    42   18   36       1
    43   19   37       1
    44   20   38       1
    45   21   39       1
@<TRIPOS>SUBSTRUCTURE
     1 ATP401      1 GROUP             4 A     ATP     0 **** ATP A 401
