@<TRIPOS>MOLECULE
4o29_SAH_1_ligand
   47    49     1     0     0
SMALL
NO_CHARGES


@<TRIPOS>ATOM
     1 N           38.0280    44.2050    48.9380 N.4          1 SAH500   1.0000
     2 CA          38.3100    43.0810    49.8330 C.3          1 SAH500   0.0000
     3 CB          37.6090    41.7300    49.4870 C.3          1 SAH500   0.0000
     4 CG          36.0890    41.8300    49.4970 C.3          1 SAH500   0.0000
     5 SD          35.4420    40.1390    49.3650 S.3          1 SAH500   0.0000
     6 C           39.8160    42.8160    49.8940 C.2          1 SAH500   0.0000
     7 O           40.5250    42.9640    48.8760 O.2          1 SAH500   0.0000
     8 OXT         40.2570    42.4490    51.0600 O.3          1 SAH500   0.0000
     9 C5'         33.7780    40.3000    50.0610 C.3          1 SAH500   0.0000
    10 C4'         33.7910    39.8470    51.5070 C.3          1 SAH500   0.0000
    11 O4'         32.6720    40.4160    52.2190 O.3          1 SAH500   0.0000
    12 C3'         33.7190    38.3300    51.7090 C.3          1 SAH500   0.0000
    13 O3'         34.7550    37.8940    52.5790 O.3          1 SAH500   0.0000
    14 C2'         32.3270    38.1080    52.3140 C.3          1 SAH500   0.0000
    15 O2'         32.2920    37.0100    53.2200 O.3          1 SAH500   0.0000
    16 C1'         32.1040    39.4260    53.0460 C.3          1 SAH500   0.0000
    17 N9          30.7090    39.7780    53.3100 N.pl3        1 SAH500   0.0000
    18 C8          29.6020    39.4380    52.5760 C.2          1 SAH500   0.0000
    19 N7          28.4700    39.8460    53.0930 N.2          1 SAH500   0.0000
    20 C5          28.8570    40.5080    54.2500 C.ar         1 SAH500   0.0000
    21 C6          28.1230    41.1350    55.2790 C.ar         1 SAH500   0.0000
    22 N6          26.7950    41.2640    55.2730 N.pl3        1 SAH500   0.0000
    23 N1          28.8150    41.6480    56.3220 N.ar         1 SAH500   0.0000
    24 C2          30.1490    41.5590    56.3200 C.ar         1 SAH500   0.0000
    25 N3          30.9470    40.9980    55.4070 N.ar         1 SAH500   0.0000
    26 C4          30.2350    40.4810    54.3920 C.ar         1 SAH500   0.0000
    27 H1          37.2287    44.7046    49.2719 H            1 SAH500   0.0000
    28 H2          38.8178    44.8178    48.9134 H            1 SAH500   0.0000
    29 HA          38.0143    43.3463    50.7507 H            1 SAH500   0.0000
    30 HB1         37.8879    41.0446    50.1596 H            1 SAH500   0.0000
    31 HB2         37.9036    41.4420    48.5758 H            1 SAH500   0.0000
    32 HG1         35.7762    42.3785    48.7215 H            1 SAH500   0.0000
    33 HG2         35.7785    42.2505    50.3495 H            1 SAH500   0.0000
    34 H5'1        33.1417    39.7318    49.5391 H            1 SAH500   0.0000
    35 H5'2        33.4875    41.2557    50.0134 H            1 SAH500   0.0000
    36 H4'         34.6333    40.1794    51.9313 H            1 SAH500   0.0000
    37 H3'         33.7898    37.8620    50.8281 H            1 SAH500   0.0000
    38 H12         34.6570    38.3449    53.4662 H            1 SAH500   0.0000
    39 H2'         31.6458    37.9885    51.5917 H            1 SAH500   0.0000
    40 H14         32.5004    37.3329    54.1432 H            1 SAH500   0.0000
    41 H1'         32.6020    39.4033    53.9129 H            1 SAH500   0.0000
    42 H16         29.6544    38.9232    51.7203 H            1 SAH500   0.0000
    43 H17         26.3335    41.7197    56.0341 H            1 SAH500   0.0000
    44 H18         26.2612    40.9050    54.5074 H            1 SAH500   0.0000
    45 H19         30.6114    41.9669    57.1072 H            1 SAH500   0.0000
    46 H20         37.8449    43.8602    48.0174 H            1 SAH500   0.0000
    47 HXT         39.6237    42.3602    51.8288 H            1 SAH500   0.0000
@<TRIPOS>BOND
     1    1    2       1
     2    2    3       1
     3    2    6       1
     4    3    4       1
     5    4    5       1
     6    5    9       1
     7    6    7       2
     8    6    8       1
     9    9   10       1
    10   10   11       1
    11   10   12       1
    12   11   16       1
    13   12   13       1
    14   12   14       1
    15   14   15       1
    16   14   16       1
    17   16   17       1
    18   17   18       1
    19   17   26       1
    20   18   19       2
    21   19   20       1
    22   20   21      ar
    23   20   26      ar
    24   21   22       1
    25   21   23      ar
    26   23   24      ar
    27   24   25      ar
    28   25   26      ar
    29    1   27       1
    30    1   28       1
    31    2   29       1
    32    3   30       1
    33    3   31       1
    34    4   32       1
    35    4   33       1
    36    1   46       1
    37    9   34       1
    38    9   35       1
    39   10   36       1
    40   12   37       1
    41   13   38       1
    42   14   39       1
    43   15   40       1
    44   16   41       1
    45   18   42       1
    46   22   43       1
    47   22   44       1
    48   24   45       1
    49    8   47       1
@<TRIPOS>SUBSTRUCTURE
     1 SAH500      1 GROUP             4 A     SAH     0 **** SAH A 500
