@<TRIPOS>MOLECULE
4py2_43E_3_ligand
   40    41     1     0     0
SMALL
NO_CHARGES


@<TRIPOS>ATOM
     1 CAH         -3.0210    16.5330    68.2520 C.ar         1 43E601   0.0000
     2 CAS         -3.2700    16.6170    69.6320 C.ar         1 43E601   0.0000
     3 CLB         -3.5900    18.1540    70.3740 Cl           1 43E601   0.0000
     4 CAG         -3.2710    15.4870    70.4490 C.ar         1 43E601   0.0000
     5 CAT         -3.0340    14.2030    69.9450 C.ar         1 43E601   0.0000
     6 CLC         -3.0790    12.8750    71.1440 Cl           1 43E601   0.0000
     7 CAI         -2.7780    14.1090    68.5380 C.ar         1 43E601   0.0000
     8 CAU         -2.7810    15.2650    67.6950 C.ar         1 43E601   0.0000
     9 CAM         -2.4490    15.2630    66.1540 C.3          1 43E601   0.0000
    10 NAN         -3.5290    15.0110    65.2440 N.4          1 43E601   1.0000
    11 CAK         -4.2390    16.1960    64.8050 C.3          1 43E601   0.0000
    12 CAJ         -5.2600    15.7830    63.7010 C.3          1 43E601   0.0000
    13 CAL         -6.4420    16.7590    63.5460 C.3          1 43E601   0.0000
    14 NAO         -7.3810    16.5370    64.6020 N.am         1 43E601   0.0000
    15 CAR         -8.4300    17.4610    64.8370 C.2          1 43E601   0.0000
    16 OAA         -8.6010    18.4530    64.1510 O.2          1 43E601   0.0000
    17 NAP         -9.2910    17.1340    65.9030 N.am         1 43E601   0.0000
    18 CAV        -10.3700    17.9370    66.3150 C.2          1 43E601   0.0000
    19 CAE        -11.2500    17.5010    67.4800 C.2          1 43E601   0.0000
    20 CAD        -12.2540    18.5070    67.7510 C.2          1 43E601   0.0000
    21 SAQ        -12.0720    19.7470    66.7040 S.3          1 43E601   0.0000
    22 CAF        -10.7800    19.2610    65.8350 C.2          1 43E601   0.0000
    23 HAH         -3.0147    17.3538    67.6809 H            1 43E601   0.0000
    24 HAG         -3.4468    15.5977    71.4272 H            1 43E601   0.0000
    25 HAI         -2.5926    13.2127    68.1353 H            1 43E601   0.0000
    26 HAM1        -1.7555    14.5596    65.9979 H            1 43E601   0.0000
    27 HAM2        -2.0702    16.1605    65.9281 H            1 43E601   0.0000
    28 HAN1        -4.1834    14.4055    65.6970 H            1 43E601   0.0000
    29 HAK1        -3.5898    16.8592    64.4325 H            1 43E601   0.0000
    30 HAK2        -4.7251    16.6034    65.5781 H            1 43E601   0.0000
    31 HAJ1        -5.6249    14.8809    63.9314 H            1 43E601   0.0000
    32 HAJ2        -4.7760    15.7336    62.8273 H            1 43E601   0.0000
    33 HAL1        -6.8884    16.6054    62.6645 H            1 43E601   0.0000
    34 HAL2        -6.1061    17.6999    63.5902 H            1 43E601   0.0000
    35 HAO         -7.2968    15.7243    65.1785 H            1 43E601   0.0000
    36 HAP         -9.1252    16.2801    66.3963 H            1 43E601   0.0000
    37 HAE        -11.1483    16.6435    67.9844 H            1 43E601   0.0000
    38 HAD        -12.9500    18.4517    68.4669 H            1 43E601   0.0000
    39 HAF        -10.3418    19.7780    65.0997 H            1 43E601   0.0000
    40 HAN2        -3.1559    14.5542    64.4365 H            1 43E601   0.0000
@<TRIPOS>BOND
     1    1    2      ar
     2    1    8      ar
     3    2    3       1
     4    2    4      ar
     5    4    5      ar
     6    5    6       1
     7    5    7      ar
     8    7    8      ar
     9    8    9       1
    10    9   10       1
    11   10   11       1
    12   11   12       1
    13   12   13       1
    14   13   14       1
    15   14   15      am
    16   15   16       2
    17   15   17      am
    18   17   18       1
    19   18   19       1
    20   18   22       2
    21   19   20       2
    22   20   21       1
    23   21   22       1
    24    1   23       1
    25    4   24       1
    26    7   25       1
    27    9   26       1
    28    9   27       1
    29   10   28       1
    30   11   29       1
    31   11   30       1
    32   12   31       1
    33   12   32       1
    34   13   33       1
    35   13   34       1
    36   14   35       1
    37   17   36       1
    38   19   37       1
    39   20   38       1
    40   22   39       1
    41   10   40       1
@<TRIPOS>SUBSTRUCTURE
     1 43E601      1 GROUP             4 C     43E     0 **** 43E C 601
