@<TRIPOS>MOLECULE
2c27_MA8_1_ligand
   58    59     1     0     0
SMALL
NO_CHARGES


@<TRIPOS>ATOM
     1 O1           4.1480     5.0880    16.1410 O.3          1 MA81312   0.0000
     2 C1           4.4670     4.3460    17.3670 C.3          1 MA81312   0.0000
     3 C2           3.0670     6.9660    17.3850 C.3          1 MA81312   0.0000
     4 C3           3.0080     5.9730    16.2030 C.3          1 MA81312   0.0000
     5 O2           1.7870     7.6600    17.4840 O.3          1 MA81312   0.0000
     6 O3           3.4340     7.0410    19.7510 O.3          1 MA81312   0.0000
     7 O4           3.3840     3.4080    17.6430 O.3          1 MA81312   0.0000
     8 N1           4.9370     4.5910    19.7550 N.am         1 MA81312   0.0000
     9 C4           2.9160     6.6880    14.8690 C.3          1 MA81312   0.0000
    10 C5           4.5930     5.3250    18.4850 C.3          1 MA81312   0.0000
    11 C6           3.2890     6.1460    18.6520 C.3          1 MA81312   0.0000
    12 O5           2.7430     5.7290    13.8590 O.3          1 MA81312   0.0000
    13 C7           2.5330     1.1420    14.7810 C.3          1 MA81312   0.0000
    14 C8           2.2620    -0.1530    15.5980 C.3          1 MA81312   0.0000
    15 C9           3.4170     2.2680    16.8150 C.3          1 MA81312   0.0000
    16 C10          2.4150     2.4040    15.6590 C.3          1 MA81312   0.0000
    17 O6           4.0820     0.8960    18.6970 O.3          1 MA81312   0.0000
    18 O7           2.8920    -1.4120    17.5700 O.3          1 MA81312   0.0000
    19 O8           1.0650     2.5370    16.2560 O.3          1 MA81312   0.0000
    20 O9           2.4820    -1.2660    14.7790 O.3          1 MA81312   0.0000
    21 C11          3.2100    -0.2520    16.8100 C.3          1 MA81312   0.0000
    22 C12          3.0920     0.9950    17.6650 C.3          1 MA81312   0.0000
    23 O10          1.6320     1.2280    13.6660 O.3          1 MA81312   0.0000
    24 C13          5.9360     5.0420    20.5610 C.2          1 MA81312   0.0000
    25 O11          6.7830     5.7860    20.1020 O.2          1 MA81312   0.0000
    26 C14          6.1030     4.3900    21.9470 C.3          1 MA81312   0.0000
    27 N2           7.1680     3.4020    21.8610 N.4          1 MA81312   1.0000
    28 C15          6.5520     5.4460    22.9840 C.3          1 MA81312   0.0000
    29 S1           8.2770     6.0830    22.5000 S.3          1 MA81312   0.0000
    30 H3           5.3269     3.8490    17.2506 H            1 MA81312   0.0000
    31 H5           3.8118     7.6207    17.2561 H            1 MA81312   0.0000
    32 H4           2.1869     5.4125    16.3107 H            1 MA81312   0.0000
    33 H6           1.8160     8.3055    18.2472 H            1 MA81312   0.0000
    34 H8           3.3554     7.9834    19.4260 H            1 MA81312   0.0000
    35 H1           4.4282     3.7678    20.0069 H            1 MA81312   0.0000
    36 H9           3.7570     7.2033    14.7041 H            1 MA81312   0.0000
    37 H10          2.1369     7.3149    14.8756 H            1 MA81312   0.0000
    38 H2           5.3392     5.9555    18.2714 H            1 MA81312   0.0000
    39 H7           2.5137     5.5336    18.8063 H            1 MA81312   0.0000
    40 H11          1.7665     5.5657    13.7182 H            1 MA81312   0.0000
    41 H15          3.4663     1.0962    14.4248 H            1 MA81312   0.0000
    42 H17          1.3137    -0.1547    15.9154 H            1 MA81312   0.0000
    43 H12          4.3367     2.1739    16.4339 H            1 MA81312   0.0000
    44 H13          2.6290     3.2167    15.1171 H            1 MA81312   0.0000
    45 H22          4.5754     0.0312    18.6037 H            1 MA81312   0.0000
    46 H20          3.6881    -2.0161    17.6050 H            1 MA81312   0.0000
    47 H14          0.6498     3.3949    15.9534 H            1 MA81312   0.0000
    48 H18          2.3091    -2.1022    15.2994 H            1 MA81312   0.0000
    49 H19          4.1506    -0.3297    16.4794 H            1 MA81312   0.0000
    50 H21          2.1768     1.0627    18.0622 H            1 MA81312   0.0000
    51 H16          1.3900     0.3069    13.3612 H            1 MA81312   0.0000
    52 H23          5.2483     3.9583    22.2354 H            1 MA81312   0.0000
    53 H24          7.2918     2.9668    22.7528 H            1 MA81312   0.0000
    54 H25          6.9254     2.7086    21.1825 H            1 MA81312   0.0000
    55 H27          6.5898     5.0302    23.8927 H            1 MA81312   0.0000
    56 H28          5.9028     6.2065    22.9922 H            1 MA81312   0.0000
    57 H26          8.0186     3.8517    21.5886 H            1 MA81312   0.0000
    58 H110         8.8920     6.6180    24.4720 H            1 MA81312   0.0000
@<TRIPOS>BOND
     1    1    2       1
     2    1    4       1
     3    2    7       1
     4    2   10       1
     5    3    4       1
     6    3    5       1
     7    3   11       1
     8    4    9       1
     9    6   11       1
    10    7   15       1
    11    8   10       1
    12    8   24      am
    13    9   12       1
    14   10   11       1
    15   13   14       1
    16   13   16       1
    17   13   23       1
    18   14   20       1
    19   14   21       1
    20   15   16       1
    21   15   22       1
    22   16   19       1
    23   17   22       1
    24   18   21       1
    25   21   22       1
    26   24   25       2
    27   24   26       1
    28   26   27       1
    29   26   28       1
    30   28   29       1
    31    2   30       1
    32    3   31       1
    33    4   32       1
    34    5   33       1
    35    6   34       1
    36    8   35       1
    37    9   36       1
    38    9   37       1
    39   10   38       1
    40   11   39       1
    41   12   40       1
    42   13   41       1
    43   14   42       1
    44   15   43       1
    45   16   44       1
    46   17   45       1
    47   18   46       1
    48   19   47       1
    49   20   48       1
    50   21   49       1
    51   22   50       1
    52   23   51       1
    53   26   52       1
    54   27   53       1
    55   27   54       1
    56   28   55       1
    57   28   56       1
    58   29   58       1
    59   27   57       1
@<TRIPOS>SUBSTRUCTURE
     1 MA81312     1 GROUP             4 A     MA8     0 **** MA8 A1312
