@<TRIPOS>MOLECULE
4b7d_QLE_1_ligand
   66    66     1     0     0
SMALL
NO_CHARGES


@<TRIPOS>ATOM
     1 O5          -5.0610    -1.9300     2.3700 O.2          1 QLE1408   0.0000
     2 C22         -4.5760    -1.6290     3.4200 C.2          1 QLE1408   0.0000
     3 C20         -5.6100    -1.2970     4.4270 C.3          1 QLE1408   0.0000
     4 C21         -5.4170     0.1420     4.8230 C.3          1 QLE1408   0.0000
     5 C19         -5.5200    -2.2510     5.6280 C.3          1 QLE1408   0.0000
     6 C17         -5.6230    -3.7490     5.2910 C.3          1 QLE1408   0.0000
     7 C18         -7.0700    -4.1670     5.0320 C.3          1 QLE1408   0.0000
     8 C11         -5.0680    -4.5580     6.4550 C.3          1 QLE1408   0.0000
     9 O3          -5.8600    -4.3160     7.6320 O.3          1 QLE1408   0.0000
    10 C12         -6.4510    -5.4990     8.2360 C.2          1 QLE1408   0.0000
    11 O4          -6.2320    -6.5780     7.6930 O.2          1 QLE1408   0.0000
    12 C13         -7.2800    -5.3360     9.5000 C.3          1 QLE1408   0.0000
    13 C14         -7.3640    -6.6170    10.3070 C.3          1 QLE1408   0.0000
    14 N           -7.4950    -6.2280    11.7240 N.4          1 QLE1408   1.0000
    15 C16         -8.6100    -5.3320    11.8910 C.3          1 QLE1408   0.0000
    16 C15         -7.8020    -7.4910    12.3480 C.3          1 QLE1408   0.0000
    17 C9          -3.6170    -4.2170     6.7740 C.3          1 QLE1408   0.0000
    18 C10         -3.1440    -4.8260     8.0710 C.3          1 QLE1408   0.0000
    19 C8          -2.6340    -4.6160     5.6890 C.2          1 QLE1408   0.0000
    20 O2          -2.7970    -5.6410     5.0360 O.2          1 QLE1408   0.0000
    21 O1          -1.4470    -3.7770     5.4750 O.3          1 QLE1408   0.0000
    22 C5          -0.7370    -3.8410     4.2020 C.3          1 QLE1408   0.0000
    23 C6           0.7040    -4.3140     4.4270 C.3          1 QLE1408   0.0000
    24 C7           0.7720    -5.7350     4.9750 C.3          1 QLE1408   0.0000
    25 C3          -0.7650    -2.4670     3.4940 C.3          1 QLE1408   0.0000
    26 C4          -0.4740    -1.3140     4.4340 C.3          1 QLE1408   0.0000
    27 C2          -2.1980    -2.3420     3.0080 C.2          1 QLE1408   0.0000
    28 C1          -3.1250    -1.7260     3.7640 C.2          1 QLE1408   0.0000
    29 H1          -6.5115    -1.3957     4.0057 H            1 QLE1408   0.0000
    30 H2          -6.1037     0.3952     5.5045 H            1 QLE1408   0.0000
    31 H3          -4.5029     0.2613     5.2106 H            1 QLE1408   0.0000
    32 H4          -5.5162     0.7257     4.0171 H            1 QLE1408   0.0000
    33 H5          -6.2630    -2.0248     6.2579 H            1 QLE1408   0.0000
    34 H6          -4.6413    -2.0962     6.0797 H            1 QLE1408   0.0000
    35 H7          -5.0781    -3.9375     4.4740 H            1 QLE1408   0.0000
    36 H8          -7.1016    -5.1430     4.8166 H            1 QLE1408   0.0000
    37 H9          -7.6199    -3.9878     5.8478 H            1 QLE1408   0.0000
    38 H10         -7.4354    -3.6437     4.2622 H            1 QLE1408   0.0000
    39 H11         -5.1251    -5.5296     6.2253 H            1 QLE1408   0.0000
    40 H12         -8.2054    -5.0573     9.2431 H            1 QLE1408   0.0000
    41 H13         -6.8634    -4.6259    10.0676 H            1 QLE1408   0.0000
    42 H14         -6.5349    -7.1604    10.1755 H            1 QLE1408   0.0000
    43 H15         -8.1607    -7.1503    10.0224 H            1 QLE1408   0.0000
    44 H16         -8.6897    -5.0749    12.8541 H            1 QLE1408   0.0000
    45 H17         -8.4642    -4.5117    11.3379 H            1 QLE1408   0.0000
    46 H18         -9.4504    -5.7872    11.5969 H            1 QLE1408   0.0000
    47 H19         -7.9167    -7.3573    13.3324 H            1 QLE1408   0.0000
    48 H20         -8.6480    -7.8573    11.9605 H            1 QLE1408   0.0000
    49 H21         -7.0542    -8.1344    12.1839 H            1 QLE1408   0.0000
    50 H22         -3.5608    -3.2237     6.8747 H            1 QLE1408   0.0000
    51 H23         -2.1902    -4.5715     8.2304 H            1 QLE1408   0.0000
    52 H24         -3.7094    -4.4883     8.8235 H            1 QLE1408   0.0000
    53 H25         -3.2190    -5.8218     8.0186 H            1 QLE1408   0.0000
    54 H26         -1.1994    -4.5068     3.6164 H            1 QLE1408   0.0000
    55 H27          1.1461    -3.6974     5.0784 H            1 QLE1408   0.0000
    56 H28          1.1919    -4.2828     3.5546 H            1 QLE1408   0.0000
    57 H29          1.7284    -5.9970     5.1044 H            1 QLE1408   0.0000
    58 H30          0.2932    -5.7773     5.8519 H            1 QLE1408   0.0000
    59 H31          0.3390    -6.3628     4.3282 H            1 QLE1408   0.0000
    60 H32         -0.1306    -2.4579     2.7211 H            1 QLE1408   0.0000
    61 H33         -0.5049    -0.4535     3.9255 H            1 QLE1408   0.0000
    62 H34         -1.1597    -1.2960     5.1617 H            1 QLE1408   0.0000
    63 H35          0.4345    -1.4319     4.8349 H            1 QLE1408   0.0000
    64 H36         -2.4549    -2.7206     2.1188 H            1 QLE1408   0.0000
    65 H37         -2.8211    -1.3026     4.6175 H            1 QLE1408   0.0000
    66 H38         -6.6473    -5.8350    12.0803 H            1 QLE1408   0.0000
@<TRIPOS>BOND
     1    1    2       2
     2    2    3       1
     3    2   28       1
     4    3    4       1
     5    3    5       1
     6    5    6       1
     7    6    7       1
     8    6    8       1
     9    8    9       1
    10    8   17       1
    11    9   10       1
    12   10   11       2
    13   10   12       1
    14   12   13       1
    15   13   14       1
    16   14   15       1
    17   14   16       1
    18   17   18       1
    19   17   19       1
    20   19   20       2
    21   19   21       1
    22   21   22       1
    23   22   23       1
    24   22   25       1
    25   23   24       1
    26   25   26       1
    27   25   27       1
    28   27   28       2
    29    3   29       1
    30    4   30       1
    31    4   31       1
    32    4   32       1
    33    5   33       1
    34    5   34       1
    35    6   35       1
    36    7   36       1
    37    7   37       1
    38    7   38       1
    39    8   39       1
    40   12   40       1
    41   12   41       1
    42   13   42       1
    43   13   43       1
    44   15   44       1
    45   15   45       1
    46   15   46       1
    47   16   47       1
    48   16   48       1
    49   16   49       1
    50   17   50       1
    51   18   51       1
    52   18   52       1
    53   18   53       1
    54   22   54       1
    55   23   55       1
    56   23   56       1
    57   24   57       1
    58   24   58       1
    59   24   59       1
    60   25   60       1
    61   26   61       1
    62   26   62       1
    63   26   63       1
    64   27   64       1
    65   28   65       1
    66   14   66       1
@<TRIPOS>SUBSTRUCTURE
     1 QLE1408     1 GROUP             4 A     QLE     0 **** QLE A1408
