@<TRIPOS>MOLECULE
3fnu_006_4_ligand
   86    90     1     0     0
SMALL
NO_CHARGES


@<TRIPOS>ATOM
     1 N2          14.4450   -32.2270   -37.4960 N.am         1 006329   0.0000
     2 C20         13.7620   -32.9950   -38.5400 C.3          1 006329   0.0000
     3 O20         11.7850   -33.5330   -37.2150 O.3          1 006329   0.0000
     4 C21         14.8460   -33.4720   -39.5150 C.3          1 006329   0.0000
     5 O21         14.0910   -34.3800   -35.7900 O.2          1 006329   0.0000
     6 C22         14.8820   -32.4470   -40.6270 C.ar         1 006329   0.0000
     7 C23         14.0590   -32.5990   -41.7500 C.ar         1 006329   0.0000
     8 C24         14.0790   -31.6480   -42.7730 C.ar         1 006329   0.0000
     9 C25         14.9220   -30.5400   -42.6650 C.ar         1 006329   0.0000
    10 C26         15.7410   -30.3820   -41.5420 C.ar         1 006329   0.0000
    11 C27         15.7210   -31.3340   -40.5220 C.ar         1 006329   0.0000
    12 C28         12.9410   -34.1020   -37.8540 C.3          1 006329   0.0000
    13 C29         13.7500   -34.8920   -36.8530 C.2          1 006329   0.0000
    14 N30         17.0240   -36.6600   -34.9830 N.am         1 006329   0.0000
    15 O30         15.3580   -36.1020   -32.8570 O.3          1 006329   0.0000
    16 C31         16.9070   -37.7090   -33.9660 C.3          1 006329   0.0000
    17 C32         18.1790   -37.8460   -33.2150 C.ar         1 006329   0.0000
    18 C33         19.4680   -37.9040   -33.7520 C.ar         1 006329   0.0000
    19 C34         20.5430   -38.0390   -32.8690 C.ar         1 006329   0.0000
    20 C35         15.8480   -37.4550   -32.8670 C.3          1 006329   0.0000
    21 C36         17.9620   -37.9290   -31.8630 C.ar         1 006329   0.0000
    22 C37         19.0290   -38.0690   -30.9700 C.ar         1 006329   0.0000
    23 C38         20.3290   -38.1240   -31.4880 C.ar         1 006329   0.0000
    24 C39         16.4900   -37.8350   -31.5190 C.3          1 006329   0.0000
    25 C40         18.5620   -27.4120   -34.9130 C.ar         1 006329   0.0000
    26 O40         12.8310   -30.6590   -37.4100 O.2          1 006329   0.0000
    27 C41         18.1900   -27.5800   -36.2460 C.ar         1 006329   0.0000
    28 O41         16.0510   -30.5410   -36.0220 O.3          1 006329   0.0000
    29 C42         17.3460   -28.6250   -36.6190 C.ar         1 006329   0.0000
    30 C43         16.9630   -28.7720   -38.0760 C.3          1 006329   0.0000
    31 C44         16.7790   -30.2780   -33.2330 C.3          1 006329   0.0000
    32 C45         16.8770   -29.5100   -35.6500 C.ar         1 006329   0.0000
    33 C46         17.2540   -29.3430   -34.3140 C.ar         1 006329   0.0000
    34 C47         18.0940   -28.2960   -33.9500 C.ar         1 006329   0.0000
    35 C48         13.9020   -31.1030   -37.0220 C.2          1 006329   0.0000
    36 C49         14.6430   -30.3580   -35.9410 C.3          1 006329   0.0000
    37 C50         13.6670   -36.8130   -38.4530 C.3          1 006329   0.0000
    38 N50         14.0580   -36.1540   -37.1980 N.am         1 006329   0.0000
    39 O50         16.5830   -35.4260   -36.7360 O.2          1 006329   0.0000
    40 S50         13.8100   -38.5330   -38.1660 S.3          1 006329   0.0000
    41 C51         14.8200   -38.5100   -36.7270 C.3          1 006329   0.0000
    42 C52         16.1830   -39.1000   -37.0720 C.3          1 006329   0.0000
    43 C53         14.1460   -39.4060   -35.6870 C.3          1 006329   0.0000
    44 C54         14.8570   -37.0120   -36.2840 C.3          1 006329   0.0000
    45 C55         16.2190   -36.3490   -36.0150 C.2          1 006329   0.0000
    46 H1          15.3220   -32.5461   -37.1367 H            1 006329   0.0000
    47 H2          13.1361   -32.3869   -39.0283 H            1 006329   0.0000
    48 H3          11.7762   -32.5438   -37.3615 H            1 006329   0.0000
    49 H4          14.6135   -34.3735   -39.8800 H            1 006329   0.0000
    50 H5          15.7326   -33.5173   -39.0547 H            1 006329   0.0000
    51 H6          13.4541   -33.3922   -41.8198 H            1 006329   0.0000
    52 H7          13.4942   -31.7598   -43.5764 H            1 006329   0.0000
    53 H8          14.9403   -29.8560   -43.3942 H            1 006329   0.0000
    54 H9          16.3416   -29.5857   -41.4701 H            1 006329   0.0000
    55 H10         16.3051   -31.2203   -39.7183 H            1 006329   0.0000
    56 H11         12.6231   -34.7336   -38.5611 H            1 006329   0.0000
    57 H12         17.8346   -36.0809   -34.8954 H            1 006329   0.0000
    58 H13         14.9350   -35.8941   -33.7390 H            1 006329   0.0000
    59 H14         16.7027   -38.5772   -34.4182 H            1 006329   0.0000
    60 H15         19.6169   -37.8505   -34.7394 H            1 006329   0.0000
    61 H16         21.4757   -38.0753   -33.2278 H            1 006329   0.0000
    62 H17         15.0744   -38.0674   -33.0295 H            1 006329   0.0000
    63 H18         18.8676   -38.1284   -29.9849 H            1 006329   0.0000
    64 H19         21.1078   -38.2244   -30.8688 H            1 006329   0.0000
    65 H20         16.1407   -38.7117   -31.1881 H            1 006329   0.0000
    66 H21         16.3255   -37.1292   -30.8300 H            1 006329   0.0000
    67 H22         19.1638   -26.6574   -34.6513 H            1 006329   0.0000
    68 H23         18.5312   -26.9460   -36.9400 H            1 006329   0.0000
    69 H24         16.3584   -29.5612   -38.1837 H            1 006329   0.0000
    70 H25         16.4900   -27.9455   -38.3813 H            1 006329   0.0000
    71 H26         17.7876   -28.9064   -38.6255 H            1 006329   0.0000
    72 H27         17.1571   -29.9899   -32.3532 H            1 006329   0.0000
    73 H28         15.7802   -30.2571   -33.1894 H            1 006329   0.0000
    74 H29         17.0843   -31.2078   -33.4386 H            1 006329   0.0000
    75 H30         18.3613   -28.1797   -32.9934 H            1 006329   0.0000
    76 H31         14.4407   -29.3825   -36.0272 H            1 006329   0.0000
    77 H32         14.3274   -30.6865   -35.0508 H            1 006329   0.0000
    78 H33         14.2757   -36.5336   -39.1956 H            1 006329   0.0000
    79 H34         12.7240   -36.5781   -38.6888 H            1 006329   0.0000
    80 H35         16.7654   -39.0913   -36.2591 H            1 006329   0.0000
    81 H36         16.0681   -40.0412   -37.3897 H            1 006329   0.0000
    82 H37         16.6095   -38.5544   -37.7934 H            1 006329   0.0000
    83 H38         14.6947   -39.4174   -34.8511 H            1 006329   0.0000
    84 H39         13.2338   -39.0510   -35.4822 H            1 006329   0.0000
    85 H40         14.0688   -40.3355   -36.0477 H            1 006329   0.0000
    86 H41         14.3740   -36.9848   -35.4088 H            1 006329   0.0000
@<TRIPOS>BOND
     1    1    2       1
     2    1   35      am
     3    2    4       1
     4    2   12       1
     5    3   12       1
     6    4    6       1
     7    5   13       2
     8    6    7      ar
     9    6   11      ar
    10    7    8      ar
    11    8    9      ar
    12    9   10      ar
    13   10   11      ar
    14   12   13       1
    15   13   38      am
    16   14   16       1
    17   14   45      am
    18   15   20       1
    19   16   17       1
    20   16   20       1
    21   17   18      ar
    22   17   21      ar
    23   18   19      ar
    24   19   23      ar
    25   20   24       1
    26   21   22      ar
    27   21   24       1
    28   22   23      ar
    29   25   27      ar
    30   25   34      ar
    31   26   35       2
    32   27   29      ar
    33   28   32       1
    34   28   36       1
    35   29   30       1
    36   29   32      ar
    37   31   33       1
    38   32   33      ar
    39   33   34      ar
    40   35   36       1
    41   37   38       1
    42   37   40       1
    43   38   44       1
    44   39   45       2
    45   40   41       1
    46   41   42       1
    47   41   43       1
    48   41   44       1
    49   44   45       1
    50    1   46       1
    51    2   47       1
    52    3   48       1
    53    4   49       1
    54    4   50       1
    55    7   51       1
    56    8   52       1
    57    9   53       1
    58   10   54       1
    59   11   55       1
    60   12   56       1
    61   14   57       1
    62   15   58       1
    63   16   59       1
    64   18   60       1
    65   19   61       1
    66   20   62       1
    67   22   63       1
    68   23   64       1
    69   24   65       1
    70   24   66       1
    71   25   67       1
    72   27   68       1
    73   30   69       1
    74   30   70       1
    75   30   71       1
    76   31   72       1
    77   31   73       1
    78   31   74       1
    79   34   75       1
    80   36   76       1
    81   36   77       1
    82   37   78       1
    83   37   79       1
    84   42   80       1
    85   42   81       1
    86   42   82       1
    87   43   83       1
    88   43   84       1
    89   43   85       1
    90   44   86       1
@<TRIPOS>SUBSTRUCTURE
     1 006329      1 GROUP             4 D     006     0 **** 006 D 329
