@<TRIPOS>MOLECULE
1oyy_AGS_1_ligand
   43    45     1     0     0
SMALL
NO_CHARGES


@<TRIPOS>ATOM
     1 PG          12.6950    -6.2010    16.6740 P.3          1 AGS527   0.0000
     2 S1G         13.3620    -6.1100    18.0030 S.2          1 AGS527   0.0000
     3 O2G         11.2600    -5.9080    16.8670 O.co2        1 AGS527  -1.0000
     4 O3G         13.2180    -5.1030    15.8030 O.co2        1 AGS527  -1.0000
     5 PB          13.1600    -8.4780    14.7440 P.3          1 AGS527   0.0000
     6 O1B         11.8940    -9.1420    14.4100 O.co2        1 AGS527   0.0000
     7 O2B         13.7210    -7.9520    13.4860 O.co2        1 AGS527  -1.0000
     8 O3B         13.0990    -7.5930    16.0430 O.3          1 AGS527   0.0000
     9 PA          15.3050   -10.3660    14.2420 P.3          1 AGS527   0.0000
    10 O1A         15.1240   -10.0080    12.8200 O.co2        1 AGS527   0.0000
    11 O2A         16.6950   -10.1730    14.7060 O.co2        1 AGS527  -1.0000
    12 O3A         14.2770    -9.5490    15.2010 O.3          1 AGS527   0.0000
    13 O5'         14.8140   -11.8380    14.5980 O.3          1 AGS527   0.0000
    14 C5'         15.0800   -12.2220    15.9630 C.3          1 AGS527   0.0000
    15 C4'         15.3400   -13.6660    16.2030 C.3          1 AGS527   0.0000
    16 O4'         14.5030   -14.5710    15.4680 O.3          1 AGS527   0.0000
    17 C3'         16.7680   -14.1680    16.0260 C.3          1 AGS527   0.0000
    18 O3'         16.9180   -15.1510    17.1040 O.3          1 AGS527   0.0000
    19 C2'         16.6770   -14.9440    14.7090 C.3          1 AGS527   0.0000
    20 O2'         17.2730   -14.7110    13.4670 O.3          1 AGS527   0.0000
    21 C1'         15.2980   -15.5430    14.8560 C.3          1 AGS527   0.0000
    22 N9          14.7640   -16.0990    13.6400 N.pl3        1 AGS527   0.0000
    23 C8          14.3120   -15.3980    12.5650 C.2          1 AGS527   0.0000
    24 N7          13.5070   -15.9970    11.7940 N.2          1 AGS527   0.0000
    25 C5          13.3870   -17.1910    12.3240 C.ar         1 AGS527   0.0000
    26 C6          12.6570   -18.2760    11.9050 C.ar         1 AGS527   0.0000
    27 N6          11.8700   -18.3840    10.8430 N.pl3        1 AGS527   0.0000
    28 N1          12.7310   -19.3830    12.6800 N.ar         1 AGS527   0.0000
    29 C2          13.5140   -19.3610    13.8140 C.ar         1 AGS527   0.0000
    30 N3          14.2700   -18.3840    14.2710 N.ar         1 AGS527   0.0000
    31 C4          14.1490   -17.3190    13.4680 C.ar         1 AGS527   0.0000
    32 H5'1        14.2872   -11.9597    16.5132 H            1 AGS527   0.0000
    33 H5'2        15.8832   -11.7125    16.2717 H            1 AGS527   0.0000
    34 H4'         15.1198   -13.8207    17.1661 H            1 AGS527   0.0000
    35 H3'         17.4600   -13.4461    16.0298 H            1 AGS527   0.0000
    36 H5          17.8372   -15.5434    17.0717 H            1 AGS527   0.0000
    37 H2'         17.2114   -15.7456    14.9770 H            1 AGS527   0.0000
    38 H7          17.8455   -15.4929    13.2201 H            1 AGS527   0.0000
    39 H1'         15.3803   -16.2985    15.5060 H            1 AGS527   0.0000
    40 H9          14.6015   -14.4564    12.3928 H            1 AGS527   0.0000
    41 H10         11.3946   -19.2442    10.6584 H            1 AGS527   0.0000
    42 H11         11.7520   -17.6053    10.2268 H            1 AGS527   0.0000
    43 H12         13.5073   -20.1973    14.3623 H            1 AGS527   0.0000
@<TRIPOS>BOND
     1    1    2       2
     2    1    3      ar
     3    1    4      ar
     4    1    8       1
     5    5    6      ar
     6    5    7      ar
     7    5    8       1
     8    5   12       1
     9    9   10      ar
    10    9   11      ar
    11    9   12       1
    12    9   13       1
    13   13   14       1
    14   14   15       1
    15   15   16       1
    16   15   17       1
    17   16   21       1
    18   17   18       1
    19   17   19       1
    20   19   20       1
    21   19   21       1
    22   21   22       1
    23   22   23       1
    24   22   31       1
    25   23   24       2
    26   24   25       1
    27   25   26      ar
    28   25   31      ar
    29   26   27       1
    30   26   28      ar
    31   28   29      ar
    32   29   30      ar
    33   30   31      ar
    34   29   43       1
    35   27   42       1
    36   27   41       1
    37   23   40       1
    38   14   32       1
    39   14   33       1
    40   15   34       1
    41   17   35       1
    42   18   36       1
    43   19   37       1
    44   20   38       1
    45   21   39       1
@<TRIPOS>SUBSTRUCTURE
     1 AGS527      1 GROUP             4 A     AGS     0 **** AGS A 527
