@<TRIPOS>MOLECULE
3r9v_DXC_2_ligand
   67    70     1     0     0
SMALL
NO_CHARGES


@<TRIPOS>ATOM
     1 C1          -4.6550   -30.4160    41.3550 C.3          1 DXC323   0.0000
     2 C2          -4.7840   -31.1160    42.6890 C.3          1 DXC323   0.0000
     3 C3          -5.4180   -30.3700    43.8460 C.3          1 DXC323   0.0000
     4 C4          -5.4070   -28.8780    43.6370 C.3          1 DXC323   0.0000
     5 C5          -5.9740   -28.4160    42.3390 C.3          1 DXC323   0.0000
     6 C6          -5.2130   -29.0100    41.1860 C.3          1 DXC323   0.0000
     7 C7          -5.0370   -30.8870    45.2920 C.3          1 DXC323   0.0000
     8 C8          -4.0470   -30.0450    46.0260 C.3          1 DXC323   0.0000
     9 C9          -4.3580   -28.5550    46.0120 C.3          1 DXC323   0.0000
    10 C10         -4.5950   -27.9990    44.5850 C.3          1 DXC323   0.0000
    11 C11         -3.2350   -27.7760    46.6240 C.3          1 DXC323   0.0000
    12 C12         -3.3780   -26.2900    46.5740 C.3          1 DXC323   0.0000
    13 C13         -3.8960   -25.7550    45.2260 C.3          1 DXC323   0.0000
    14 C14         -5.0130   -26.5780    44.6380 C.3          1 DXC323   0.0000
    15 C15         -3.0740   -28.0640    48.0650 C.3          1 DXC323   0.0000
    16 C16         -2.1450   -26.9900    48.5430 C.3          1 DXC323   0.0000
    17 C17         -2.2120   -25.8650    47.5340 C.3          1 DXC323   0.0000
    18 C18         -6.7250   -28.5220    44.3420 C.3          1 DXC323   0.0000
    19 C19         -2.3290   -24.5700    48.1700 C.3          1 DXC323   0.0000
    20 O1          -2.8600   -25.6750    44.3370 O.3          1 DXC323   0.0000
    21 O2          -3.3090   -30.4160    40.9700 O.3          1 DXC323   0.0000
    22 C20         -4.6430   -26.0160    47.4290 C.3          1 DXC323   0.0000
    23 C21         -1.1130   -24.2510    49.0500 C.3          1 DXC323   0.0000
    24 C22          0.0730   -23.5470    48.4100 C.3          1 DXC323   0.0000
    25 C23          1.3900   -23.5030    49.1600 C.2          1 DXC323   0.0000
    26 O3           1.2070   -23.3560    50.3910 O.co2        1 DXC323   0.0000
    27 O4           2.3660   -23.6220    48.3410 O.co2        1 DXC323  -1.0000
    28 C24         -2.3590   -23.4690    47.1310 C.3          1 DXC323   0.0000
    29 H1          -5.1355   -30.9890    40.6911 H            1 DXC323   0.0000
    30 H2          -3.8615   -31.3743    42.9759 H            1 DXC323   0.0000
    31 H3          -5.3290   -31.9406    42.5369 H            1 DXC323   0.0000
    32 H4          -6.3867   -30.6051    43.7667 H            1 DXC323   0.0000
    33 H5          -5.9162   -27.4188    42.2917 H            1 DXC323   0.0000
    34 H6          -6.9318   -28.6975    42.2802 H            1 DXC323   0.0000
    35 H7          -5.8289   -29.0259    40.3983 H            1 DXC323   0.0000
    36 H8          -4.4414   -28.4037    40.9936 H            1 DXC323   0.0000
    37 H9          -4.6545   -31.8065    45.2012 H            1 DXC323   0.0000
    38 H10         -5.8743   -30.9266    45.8372 H            1 DXC323   0.0000
    39 H11         -3.1490   -30.1813    45.6076 H            1 DXC323   0.0000
    40 H12         -4.0211   -30.3504    46.9779 H            1 DXC323   0.0000
    41 H13         -5.1838   -28.3988    46.5539 H            1 DXC323   0.0000
    42 H14         -3.6828   -27.9725    44.1761 H            1 DXC323   0.0000
    43 H15         -2.3872   -28.0263    46.1566 H            1 DXC323   0.0000
    44 H16         -4.2433   -24.8294    45.3764 H            1 DXC323   0.0000
    45 H17         -5.8293   -26.4905    45.2089 H            1 DXC323   0.0000
    46 H18         -5.2163   -26.2544    43.7139 H            1 DXC323   0.0000
    47 H19         -2.6734   -28.9696    48.2046 H            1 DXC323   0.0000
    48 H20         -3.9529   -28.0116    48.5391 H            1 DXC323   0.0000
    49 H21         -1.2116   -27.3442    48.6008 H            1 DXC323   0.0000
    50 H22         -2.4334   -26.6620    49.4426 H            1 DXC323   0.0000
    51 H23         -1.3619   -25.8732    47.0075 H            1 DXC323   0.0000
    52 H24         -6.8733   -27.5343    44.2926 H            1 DXC323   0.0000
    53 H25         -7.4822   -28.9957    43.8922 H            1 DXC323   0.0000
    54 H26         -6.6774   -28.8044    45.3001 H            1 DXC323   0.0000
    55 H27         -3.1629   -24.5379    48.7209 H            1 DXC323   0.0000
    56 H28         -3.1975   -25.3275    43.4622 H            1 DXC323   0.0000
    57 H29         -3.2146   -29.9545    40.0879 H            1 DXC323   0.0000
    58 H30         -4.8215   -25.0324    47.4544 H            1 DXC323   0.0000
    59 H31         -5.4271   -26.4867    47.0245 H            1 DXC323   0.0000
    60 H32         -4.4959   -26.3522    48.3592 H            1 DXC323   0.0000
    61 H33         -0.7789   -25.1181    49.4195 H            1 DXC323   0.0000
    62 H34         -1.4332   -23.6708    49.7989 H            1 DXC323   0.0000
    63 H35         -0.2022   -22.6000    48.2441 H            1 DXC323   0.0000
    64 H36          0.2476   -24.0013    47.5364 H            1 DXC323   0.0000
    65 H37         -2.4400   -22.5826    47.5868 H            1 DXC323   0.0000
    66 H38         -1.5146   -23.4927    46.5958 H            1 DXC323   0.0000
    67 H39         -3.1422   -23.6046    46.5242 H            1 DXC323   0.0000
@<TRIPOS>BOND
     1    1    2       1
     2    1    6       1
     3    1   21       1
     4    2    3       1
     5    3    4       1
     6    3    7       1
     7    4    5       1
     8    4   10       1
     9    4   18       1
    10    5    6       1
    11    7    8       1
    12    8    9       1
    13    9   10       1
    14    9   11       1
    15   10   14       1
    16   11   12       1
    17   11   15       1
    18   12   13       1
    19   12   17       1
    20   12   22       1
    21   13   14       1
    22   13   20       1
    23   15   16       1
    24   16   17       1
    25   17   19       1
    26   19   23       1
    27   19   28       1
    28   23   24       1
    29   24   25       1
    30   25   26      ar
    31   25   27      ar
    32    1   29       1
    33    2   30       1
    34    2   31       1
    35    3   32       1
    36    5   33       1
    37    5   34       1
    38    6   35       1
    39    6   36       1
    40    7   37       1
    41    7   38       1
    42    8   39       1
    43    8   40       1
    44    9   41       1
    45   10   42       1
    46   11   43       1
    47   13   44       1
    48   14   45       1
    49   14   46       1
    50   15   47       1
    51   15   48       1
    52   16   49       1
    53   16   50       1
    54   17   51       1
    55   18   52       1
    56   18   53       1
    57   18   54       1
    58   19   55       1
    59   20   56       1
    60   21   57       1
    61   22   58       1
    62   22   59       1
    63   22   60       1
    64   23   61       1
    65   23   62       1
    66   24   63       1
    67   24   64       1
    68   28   67       1
    69   28   65       1
    70   28   66       1
@<TRIPOS>SUBSTRUCTURE
     1 DXC323      1 GROUP             4 B     DXC     0 **** DXC B 323
