@<TRIPOS>MOLECULE
4ntd_FAD_1_ligand
   84    89     1     0     0
SMALL
NO_CHARGES


@<TRIPOS>ATOM
     1 PA          19.1710    43.3300    12.7860 P.3          1 FAD402   0.0000
     2 O1A         20.3390    43.9780    12.0910 O.co2        1 FAD402   0.0000
     3 O2A         19.3580    42.8490    14.2000 O.co2        1 FAD402  -1.0000
     4 O5B         17.9490    44.3670    12.7660 O.3          1 FAD402   0.0000
     5 C5B         16.6990    44.0200    13.3480 C.3          1 FAD402   0.0000
     6 C4B         15.9710    45.3050    13.7010 C.3          1 FAD402   0.0000
     7 O4B         14.6240    45.0040    14.0560 O.3          1 FAD402   0.0000
     8 C3B         16.5950    46.0210    14.8970 C.3          1 FAD402   0.0000
     9 O3B         16.9860    47.3530    14.5400 O.3          1 FAD402   0.0000
    10 C2B         15.5080    46.0190    15.9600 C.3          1 FAD402   0.0000
    11 O2B         15.4890    47.2280    16.7250 O.3          1 FAD402   0.0000
    12 C1B         14.2420    45.8560    15.1360 C.3          1 FAD402   0.0000
    13 N9A         13.0760    45.2590    15.8240 N.pl3        1 FAD402   0.0000
    14 C8A         13.0320    44.0760    16.4630 C.2          1 FAD402   0.0000
    15 N7A         11.7870    43.8430    16.9450 N.2          1 FAD402   0.0000
    16 C5A         11.0160    44.8900    16.6040 C.ar         1 FAD402   0.0000
    17 C6A          9.6050    45.2850    16.7920 C.ar         1 FAD402   0.0000
    18 N6A          8.7570    44.4820    17.4730 N.pl3        1 FAD402   0.0000
    19 N1A          9.2020    46.4680    16.2700 N.ar         1 FAD402   0.0000
    20 C2A         10.0420    47.2790    15.5920 C.ar         1 FAD402   0.0000
    21 N3A         11.3380    46.9740    15.3820 N.ar         1 FAD402   0.0000
    22 C4A         11.8690    45.8180    15.8550 C.ar         1 FAD402   0.0000
    23 N1          27.6420    40.3290    10.6200 N.2          1 FAD402   0.0000
    24 C2          28.4840    40.6860     9.6230 C.2          1 FAD402   0.0000
    25 O2          28.1330    40.4500     8.4490 O.2          1 FAD402   0.0000
    26 N3          29.6710    41.2770     9.8530 N.pl3        1 FAD402   0.0000
    27 C4          30.0970    41.5610    11.0970 C.2          1 FAD402   0.0000
    28 O4          31.2050    42.1050    11.2800 O.2          1 FAD402   0.0000
    29 C4X         29.2290    41.2130    12.2470 C.2          1 FAD402   0.0000
    30 N5          29.5740    41.4580    13.5360 N.2          1 FAD402   0.0000
    31 C5X         28.7440    41.1030    14.5530 C.ar         1 FAD402   0.0000
    32 C6          29.1220    41.3670    15.8660 C.ar         1 FAD402   0.0000
    33 C7          28.2970    41.0200    16.9320 C.ar         1 FAD402   0.0000
    34 C7M         28.7280    41.3150    18.3480 C.3          1 FAD402   0.0000
    35 C8          26.9930    40.3610    16.6680 C.ar         1 FAD402   0.0000
    36 C8M         26.0880    39.9680    17.8070 C.3          1 FAD402   0.0000
    37 C9          26.6070    40.0930    15.3590 C.ar         1 FAD402   0.0000
    38 C9A         27.4330    40.4370    14.2850 C.ar         1 FAD402   0.0000
    39 N10         27.0620    40.1780    12.9400 N.pl3        1 FAD402   0.0000
    40 C10         27.9450    40.5600    11.9160 C.2          1 FAD402   0.0000
    41 C1'         25.7930    39.5420    12.5630 C.3          1 FAD402   0.0000
    42 C2'         24.7420    40.6300    12.3400 C.3          1 FAD402   0.0000
    43 O2'         24.3410    41.1640    13.6100 O.3          1 FAD402   0.0000
    44 C3'         23.5130    40.0940    11.6070 C.3          1 FAD402   0.0000
    45 O3'         23.9230    39.4950    10.3720 O.3          1 FAD402   0.0000
    46 C4'         22.4790    41.1760    11.2940 C.3          1 FAD402   0.0000
    47 O4'         22.1990    41.9780    12.4470 O.3          1 FAD402   0.0000
    48 C5'         21.1660    40.5720    10.8130 C.3          1 FAD402   0.0000
    49 O5'         20.3930    41.5940    10.1880 O.3          1 FAD402   0.0000
    50 P           18.8020    41.6800    10.3840 P.3          1 FAD402   0.0000
    51 O1P         18.2210    40.2970    10.2790 O.co2        1 FAD402   0.0000
    52 O2P         18.3060    42.7890     9.4900 O.co2        1 FAD402  -1.0000
    53 O3P         18.5960    42.0750    11.9440 O.3          1 FAD402   0.0000
    54 H5B1        16.8487    43.4771    14.1744 H            1 FAD402   0.0000
    55 H5B2        16.1563    43.4911    12.6955 H            1 FAD402   0.0000
    56 H4B         15.9760    45.9164    12.9097 H            1 FAD402   0.0000
    57 H3B         17.3899    45.5092    15.2227 H            1 FAD402   0.0000
    58 H5          16.1828    47.8665    14.2381 H            1 FAD402   0.0000
    59 H2B         15.6246    45.2326    16.5666 H            1 FAD402   0.0000
    60 H7          14.7603    47.1788    17.4081 H            1 FAD402   0.0000
    61 H1B         13.9787    46.7475    14.7674 H            1 FAD402   0.0000
    62 H8A         13.8091    43.4554    16.5677 H            1 FAD402   0.0000
    63 H6A1         7.8027    44.7537    17.5977 H            1 FAD402   0.0000
    64 H6A2         9.0840    43.6163    17.8521 H            1 FAD402   0.0000
    65 H2A          9.6880    48.1416    15.2307 H            1 FAD402   0.0000
    66 H13         30.2541    41.5122     9.0754 H            1 FAD402   0.0000
    67 H14         29.9990    41.8124    16.0463 H            1 FAD402   0.0000
    68 H7M1        28.0220    41.0021    18.9834 H            1 FAD402   0.0000
    69 H7M2        29.5856    40.8384    18.5415 H            1 FAD402   0.0000
    70 H7M3        28.8620    42.2999    18.4573 H            1 FAD402   0.0000
    71 H8M1        25.2606    39.5403    17.4430 H            1 FAD402   0.0000
    72 H8M2        26.5636    39.3205    18.4025 H            1 FAD402   0.0000
    73 H8M3        25.8392    40.7824    18.3313 H            1 FAD402   0.0000
    74 H21         25.7282    39.6490    15.1841 H            1 FAD402   0.0000
    75 H1'1        25.4932    38.9305    13.2953 H            1 FAD402   0.0000
    76 H1'2        25.9174    39.0175    11.7207 H            1 FAD402   0.0000
    77 H2'         25.1479    41.3638    11.7952 H            1 FAD402   0.0000
    78 H25         23.3917    41.4737    13.5566 H            1 FAD402   0.0000
    79 H3'         23.0815    39.3933    12.1751 H            1 FAD402   0.0000
    80 H27         23.6577    38.5309    10.3649 H            1 FAD402   0.0000
    81 H4'         22.8422    41.7670    10.5737 H            1 FAD402   0.0000
    82 H29         21.5213    42.6748    12.2118 H            1 FAD402   0.0000
    83 H5'1        20.6624    40.1984    11.5920 H            1 FAD402   0.0000
    84 H5'2        21.3526    39.8420    10.1556 H            1 FAD402   0.0000
@<TRIPOS>BOND
     1    1    2      ar
     2    1    3      ar
     3    1    4       1
     4    1   53       1
     5    4    5       1
     6    5    6       1
     7    6    7       1
     8    6    8       1
     9    7   12       1
    10    8    9       1
    11    8   10       1
    12   10   11       1
    13   10   12       1
    14   12   13       1
    15   13   14       1
    16   13   22       1
    17   14   15       2
    18   15   16       1
    19   16   17      ar
    20   16   22      ar
    21   17   18       1
    22   17   19      ar
    23   19   20      ar
    24   20   21      ar
    25   21   22      ar
    26   23   24       1
    27   23   40       2
    28   24   25       2
    29   24   26       1
    30   26   27       1
    31   27   28       2
    32   27   29       1
    33   29   30       2
    34   29   40       1
    35   30   31       1
    36   31   32      ar
    37   31   38      ar
    38   32   33      ar
    39   33   34       1
    40   33   35      ar
    41   35   36       1
    42   35   37      ar
    43   37   38      ar
    44   38   39       1
    45   39   40       1
    46   39   41       1
    47   41   42       1
    48   42   43       1
    49   42   44       1
    50   44   45       1
    51   44   46       1
    52   46   47       1
    53   46   48       1
    54   48   49       1
    55   49   50       1
    56   50   51      ar
    57   50   52      ar
    58   50   53       1
    59   48   84       1
    60    5   54       1
    61    5   55       1
    62    6   56       1
    63    8   57       1
    64    9   58       1
    65   10   59       1
    66   11   60       1
    67   12   61       1
    68   14   62       1
    69   18   63       1
    70   18   64       1
    71   20   65       1
    72   26   66       1
    73   32   67       1
    74   34   68       1
    75   34   69       1
    76   34   70       1
    77   36   71       1
    78   36   72       1
    79   36   73       1
    80   37   74       1
    81   41   75       1
    82   41   76       1
    83   42   77       1
    84   43   78       1
    85   44   79       1
    86   45   80       1
    87   46   81       1
    88   47   82       1
    89   48   83       1
@<TRIPOS>SUBSTRUCTURE
     1 FAD402      1 GROUP             4 A     FAD     0 **** FAD A 402
