@<TRIPOS>MOLECULE
4v12_POG_1_ligand
   33    32     1     0     0
SMALL
NO_CHARGES


@<TRIPOS>ATOM
     1 OH          -5.5270    17.0740     1.0300 O.3          1 POG1343   0.0000
     2 C2          -5.9470    17.2960    -0.2850 C.3          1 POG1343   0.0000
     3 C1          -4.7740    17.8320    -1.1020 C.3          1 POG1343   0.0000
     4 C3          -6.4610    15.9750    -0.8610 C.3          1 POG1343   0.0000
     5 O2          -7.6140    15.6240    -0.1350 O.3          1 POG1343   0.0000
     6 C5          -8.1470    14.3760    -0.4630 C.3          1 POG1343   0.0000
     7 O6          -8.0520    11.5670     3.3780 O.3          1 POG1343   0.0000
     8 C13         -8.4900    12.7820     3.9280 C.3          1 POG1343   0.0000
     9 C14         -9.3660    13.4540     2.8760 C.3          1 POG1343   0.0000
    10 O7          -8.5340    13.9320     1.8440 O.3          1 POG1343   0.0000
    11 C15         -9.1720    13.9920     0.6010 C.3          1 POG1343   0.0000
    12 C16         -8.8390    14.4460    -1.8250 C.3          1 POG1343   0.0000
    13 C17        -10.1390    14.6100     3.4970 C.3          1 POG1343   0.0000
    14 HH          -6.0539    16.3218     1.4257 H            1 POG1343   0.0000
    15 H2          -6.6870    17.9686    -0.2873 H            1 POG1343   0.0000
    16 H3          -5.0695    17.9925    -2.0438 H            1 POG1343   0.0000
    17 H4          -4.4541    18.6909    -0.7021 H            1 POG1343   0.0000
    18 H5          -4.0301    17.1637    -1.0953 H            1 POG1343   0.0000
    19 H6          -5.7645    15.2643    -0.7621 H            1 POG1343   0.0000
    20 H7          -6.6868    16.0881    -1.8286 H            1 POG1343   0.0000
    21 H8          -7.4166    13.6935    -0.4901 H            1 POG1343   0.0000
    22 H9          -7.1896    11.7123     2.8930 H            1 POG1343   0.0000
    23 H10         -7.7061    13.3636     4.1453 H            1 POG1343   0.0000
    24 H11         -9.0196    12.6122     4.7591 H            1 POG1343   0.0000
    25 H12        -10.0094    12.7859     2.5024 H            1 POG1343   0.0000
    26 H13         -9.5648    13.0989     0.3818 H            1 POG1343   0.0000
    27 H14         -9.8991    14.6779     0.6297 H            1 POG1343   0.0000
    28 H15         -9.2179    13.5491    -2.0528 H            1 POG1343   0.0000
    29 H16         -9.5766    15.1203    -1.7899 H            1 POG1343   0.0000
    30 H17         -8.1750    14.7144    -2.5229 H            1 POG1343   0.0000
    31 H18        -10.7094    15.0428     2.7989 H            1 POG1343   0.0000
    32 H19        -10.7193    14.2649     4.2346 H            1 POG1343   0.0000
    33 H20         -9.4959    15.2814     3.8652 H            1 POG1343   0.0000
@<TRIPOS>BOND
     1    1    2       1
     2    2    3       1
     3    2    4       1
     4    4    5       1
     5    5    6       1
     6    6   11       1
     7    6   12       1
     8    7    8       1
     9    8    9       1
    10    9   10       1
    11    9   13       1
    12   10   11       1
    13    1   14       1
    14    2   15       1
    15    3   16       1
    16    3   17       1
    17    3   18       1
    18    4   19       1
    19    4   20       1
    20    6   21       1
    21    7   22       1
    22    8   23       1
    23    8   24       1
    24    9   25       1
    25   11   26       1
    26   11   27       1
    27   12   28       1
    28   12   29       1
    29   12   30       1
    30   13   31       1
    31   13   32       1
    32   13   33       1
@<TRIPOS>SUBSTRUCTURE
     1 POG1343     1 GROUP             4 A     POG     0 **** POG A1343
