@<TRIPOS>MOLECULE
2gpv_OHT_1_ligand
   59    61     1     0     0
SMALL
NO_CHARGES


@<TRIPOS>ATOM
     1 C10         35.3600     0.9870    55.1960 C.3          1 OHT500   0.0000
     2 C9          35.7810     2.4260    55.0170 C.3          1 OHT500   0.0000
     3 C8          34.6180     3.2640    54.6110 C.2          1 OHT500   0.0000
     4 C11         33.3870     2.9750    55.3610 C.ar         1 OHT500   0.0000
     5 C16         33.2550     3.3010    56.6950 C.ar         1 OHT500   0.0000
     6 C15         32.0770     3.0090    57.3600 C.ar         1 OHT500   0.0000
     7 C14         31.0320     2.3900    56.7040 C.ar         1 OHT500   0.0000
     8 C13         31.1610     2.0580    55.3770 C.ar         1 OHT500   0.0000
     9 C12         32.3340     2.3500    54.7190 C.ar         1 OHT500   0.0000
    10 C7          34.6330     4.2180    53.6550 C.2          1 OHT500   0.0000
    11 C1          35.7840     4.5650    52.8340 C.ar         1 OHT500   0.0000
    12 C2          36.1550     5.8900    52.7560 C.ar         1 OHT500   0.0000
    13 C3          37.2230     6.2600    51.9820 C.ar         1 OHT500   0.0000
    14 C4          37.9060     5.2940    51.2800 C.ar         1 OHT500   0.0000
    15 O4          38.9830     5.6560    50.4940 O.3          1 OHT500   0.0000
    16 C5          37.5370     3.9730    51.3410 C.ar         1 OHT500   0.0000
    17 C6          36.4660     3.6070    52.1190 C.ar         1 OHT500   0.0000
    18 C17         33.4110     4.9320    53.3940 C.ar         1 OHT500   0.0000
    19 C18         32.8300     4.8420    52.1510 C.ar         1 OHT500   0.0000
    20 C19         31.6620     5.5140    51.8890 C.ar         1 OHT500   0.0000
    21 C20         31.1010     6.2800    52.8860 C.ar         1 OHT500   0.0000
    22 O20         29.9190     6.9930    52.7460 O.3          1 OHT500   0.0000
    23 C23         29.8230     7.6140    51.4830 C.3          1 OHT500   0.0000
    24 C24         28.5170     8.3570    51.5600 C.3          1 OHT500   0.0000
    25 N24         28.6540     9.5590    50.7310 N.4          1 OHT500   1.0000
    26 C25         27.4340    10.3900    50.8560 C.3          1 OHT500   0.0000
    27 C26         28.9340     9.1620    49.3260 C.3          1 OHT500   0.0000
    28 C21         31.6920     6.3670    54.1250 C.ar         1 OHT500   0.0000
    29 C22         32.8550     5.6950    54.3860 C.ar         1 OHT500   0.0000
    30 H1          36.1514     0.4395    55.4680 H            1 OHT500   0.0000
    31 H2          34.6566     0.9312    55.9046 H            1 OHT500   0.0000
    32 H3          34.9932     0.6373    54.3339 H            1 OHT500   0.0000
    33 H4          36.4860     2.4769    54.3097 H            1 OHT500   0.0000
    34 H5          36.1495     2.7708    55.8803 H            1 OHT500   0.0000
    35 H6          34.0077     3.7466    57.1796 H            1 OHT500   0.0000
    36 H7          31.9818     3.2490    58.3261 H            1 OHT500   0.0000
    37 H8          30.1843     2.1840    57.1928 H            1 OHT500   0.0000
    38 H9          30.4097     1.6084    54.8938 H            1 OHT500   0.0000
    39 H10         32.4269     2.1044    53.7541 H            1 OHT500   0.0000
    40 H11         35.6438     6.5824    53.2652 H            1 OHT500   0.0000
    41 H12         37.5022     7.2187    51.9281 H            1 OHT500   0.0000
    42 H13         39.2614     6.6149    50.4382 H            1 OHT500   0.0000
    43 H14         38.0436     3.2834    50.8235 H            1 OHT500   0.0000
    44 H15         36.1831     2.6490    52.1657 H            1 OHT500   0.0000
    45 H16         33.2583     4.2870    51.4379 H            1 OHT500   0.0000
    46 H17         31.2269     5.4484    50.9910 H            1 OHT500   0.0000
    47 H18         29.8054     6.9340    50.7500 H            1 OHT500   0.0000
    48 H19         30.5853     8.2441    51.3349 H            1 OHT500   0.0000
    49 H20         28.3240     8.6138    52.5070 H            1 OHT500   0.0000
    50 H21         27.7752     7.7835    51.2124 H            1 OHT500   0.0000
    51 H22         27.5291    11.2090    50.2902 H            1 OHT500   0.0000
    52 H23         26.6399     9.8644    50.5507 H            1 OHT500   0.0000
    53 H24         27.3094    10.6576    51.8114 H            1 OHT500   0.0000
    54 H25         29.0275     9.9814    48.7604 H            1 OHT500   0.0000
    55 H26         29.7829     8.6345    49.2915 H            1 OHT500   0.0000
    56 H27         28.1800     8.6030    48.9810 H            1 OHT500   0.0000
    57 H28         31.2692     6.9247    54.8393 H            1 OHT500   0.0000
    58 H29         33.2906     5.7598    55.2838 H            1 OHT500   0.0000
    59 H30         29.4318    10.0884    51.0698 H            1 OHT500   0.0000
@<TRIPOS>BOND
     1    1    2       1
     2    2    3       1
     3    3    4       1
     4    3   10       2
     5    4    5      ar
     6    4    9      ar
     7    5    6      ar
     8    6    7      ar
     9    7    8      ar
    10    8    9      ar
    11   10   11       1
    12   10   18       1
    13   11   12      ar
    14   11   17      ar
    15   12   13      ar
    16   13   14      ar
    17   14   15       1
    18   14   16      ar
    19   16   17      ar
    20   18   19      ar
    21   18   29      ar
    22   19   20      ar
    23   20   21      ar
    24   21   22       1
    25   21   28      ar
    26   22   23       1
    27   23   24       1
    28   24   25       1
    29   25   26       1
    30   25   27       1
    31   28   29      ar
    32    1   30       1
    33    1   31       1
    34    1   32       1
    35    2   33       1
    36    2   34       1
    37    5   35       1
    38    6   36       1
    39    7   37       1
    40    8   38       1
    41    9   39       1
    42   12   40       1
    43   13   41       1
    44   15   42       1
    45   16   43       1
    46   17   44       1
    47   19   45       1
    48   20   46       1
    49   23   47       1
    50   23   48       1
    51   24   49       1
    52   24   50       1
    53   26   51       1
    54   26   52       1
    55   26   53       1
    56   27   54       1
    57   27   55       1
    58   27   56       1
    59   28   57       1
    60   29   58       1
    61   25   59       1
@<TRIPOS>SUBSTRUCTURE
     1 OHT500      1 GROUP             4 A     OHT     0 **** OHT A 500
