@<TRIPOS>MOLECULE
3u6w_KIV_2_ligand
   15    14     1     0     0
SMALL
NO_CHARGES


@<TRIPOS>ATOM
     1 O1         -24.4160   -61.6230   -37.3070 O.co2        1 KIV427   0.0000
     2 C1         -25.3390   -60.9760   -37.8140 C.2          1 KIV427   0.0000
     3 O2         -25.5850   -59.7860   -37.4380 O.co2        1 KIV427  -1.0000
     4 C2         -26.0890   -61.6710   -38.8790 C.2          1 KIV427   0.0000
     5 C3         -25.4970   -62.9250   -39.4220 C.3          1 KIV427   0.0000
     6 C4         -26.5640   -63.8030   -40.0840 C.3          1 KIV427   0.0000
     7 C5         -24.4600   -62.4860   -40.4250 C.3          1 KIV427   0.0000
     8 O3         -27.1220   -61.2300   -39.3740 O.2          1 KIV427   0.0000
     9 H1         -25.0548   -63.4341   -38.6836 H            1 KIV427   0.0000
    10 H2         -26.1379   -64.6355   -40.4382 H            1 KIV427   0.0000
    11 H3         -27.2610   -64.0463   -39.4094 H            1 KIV427   0.0000
    12 H4         -26.9895   -63.3002   -40.8364 H            1 KIV427   0.0000
    13 H5         -24.0238   -63.2908   -40.8274 H            1 KIV427   0.0000
    14 H6         -24.8993   -61.9496   -41.1456 H            1 KIV427   0.0000
    15 H7         -23.7692   -61.9264   -39.9671 H            1 KIV427   0.0000
@<TRIPOS>BOND
     1    1    2      ar
     2    2    3      ar
     3    2    4       1
     4    4    5       1
     5    4    8       2
     6    5    6       1
     7    5    7       1
     8    7   15       1
     9    5    9       1
    10    6   10       1
    11    6   11       1
    12    6   12       1
    13    7   13       1
    14    7   14       1
@<TRIPOS>SUBSTRUCTURE
     1 KIV427      1 GROUP             4 B     KIV     0 **** KIV B 427
