@<TRIPOS>MOLECULE
4jlp_ADP_1_ligand
   39    41     1     0     0
SMALL
NO_CHARGES


@<TRIPOS>ATOM
     1 PB         -12.1570   -29.1800    -2.1330 P.3          1 ADP301   0.0000
     2 O1B        -12.0070   -28.7340    -0.6930 O.co2        1 ADP301   0.0000
     3 O2B        -10.9030   -29.0190    -2.9580 O.co2        1 ADP301  -1.0000
     4 O3B        -13.4470   -28.8150    -2.8500 O.co2        1 ADP301  -1.0000
     5 PA         -11.6480   -31.8550    -1.0220 P.3          1 ADP301   0.0000
     6 O1A        -12.3620   -32.0270     0.2800 O.co2        1 ADP301   0.0000
     7 O2A        -11.7860   -32.9940    -2.0080 O.co2        1 ADP301  -1.0000
     8 O3A        -12.2820   -30.7750    -2.0230 O.3          1 ADP301   0.0000
     9 O5'        -10.0740   -31.7090    -0.7720 O.3          1 ADP301   0.0000
    10 C5'         -9.1410   -31.5740    -1.8370 C.3          1 ADP301   0.0000
    11 C4'         -8.1460   -32.7270    -1.8010 C.3          1 ADP301   0.0000
    12 O4'         -7.5620   -32.8770    -0.4990 O.3          1 ADP301   0.0000
    13 C3'         -8.7470   -34.0930    -2.0850 C.3          1 ADP301   0.0000
    14 O3'         -8.9570   -34.3310    -3.4780 O.3          1 ADP301   0.0000
    15 C2'         -7.7000   -35.0090    -1.4850 C.3          1 ADP301   0.0000
    16 O2'         -6.5390   -35.0330    -2.3280 O.3          1 ADP301   0.0000
    17 C1'         -7.3270   -34.2550    -0.2200 C.3          1 ADP301   0.0000
    18 N9          -8.2440   -34.6320     0.8830 N.pl3        1 ADP301   0.0000
    19 C8          -9.2070   -33.8500     1.4200 C.2          1 ADP301   0.0000
    20 N7          -9.8440   -34.4930     2.4320 N.2          1 ADP301   0.0000
    21 C5          -9.2730   -35.7090     2.5530 C.ar         1 ADP301   0.0000
    22 C6          -9.4690   -36.8930     3.4110 C.ar         1 ADP301   0.0000
    23 N6         -10.4280   -36.9080     4.3820 N.pl3        1 ADP301   0.0000
    24 N1          -8.6520   -37.9460     3.2090 N.ar         1 ADP301   0.0000
    25 C2          -7.6970   -37.9440     2.2660 C.ar         1 ADP301   0.0000
    26 N3          -7.4670   -36.9080     1.4460 N.ar         1 ADP301   0.0000
    27 C4          -8.2120   -35.7840     1.5440 C.ar         1 ADP301   0.0000
    28 H5'1        -8.6497   -30.7084    -1.7402 H            1 ADP301   0.0000
    29 H5'2        -9.6295   -31.5842    -2.7095 H            1 ADP301   0.0000
    30 H4'         -7.4189   -32.5486    -2.4639 H            1 ADP301   0.0000
    31 H3'         -9.6099   -34.1937    -1.5897 H            1 ADP301   0.0000
    32 H5          -8.2731   -33.8302    -4.0085 H            1 ADP301   0.0000
    33 H2'         -8.0549   -35.9244    -1.2951 H            1 ADP301   0.0000
    34 H7          -6.3734   -35.9683    -2.6407 H            1 ADP301   0.0000
    35 H1'         -6.3725   -34.4167     0.0305 H            1 ADP301   0.0000
    36 H9          -9.4214   -32.9227     1.1132 H            1 ADP301   0.0000
    37 H10        -10.5471   -37.7191     4.9546 H            1 ADP301   0.0000
    38 H11        -11.0115   -36.1079     4.5208 H            1 ADP301   0.0000
    39 H12         -7.1260   -38.7592     2.1696 H            1 ADP301   0.0000
@<TRIPOS>BOND
     1    1    2      ar
     2    1    3      ar
     3    1    4      ar
     4    1    8       1
     5    5    6      ar
     6    5    7      ar
     7    5    8       1
     8    5    9       1
     9    9   10       1
    10   10   11       1
    11   11   12       1
    12   11   13       1
    13   12   17       1
    14   13   14       1
    15   13   15       1
    16   15   16       1
    17   15   17       1
    18   17   18       1
    19   18   19       1
    20   18   27       1
    21   19   20       2
    22   20   21       1
    23   21   22      ar
    24   21   27      ar
    25   22   23       1
    26   22   24      ar
    27   24   25      ar
    28   25   26      ar
    29   26   27      ar
    30   25   39       1
    31   23   38       1
    32   23   37       1
    33   10   28       1
    34   10   29       1
    35   11   30       1
    36   13   31       1
    37   14   32       1
    38   15   33       1
    39   16   34       1
    40   17   35       1
    41   19   36       1
@<TRIPOS>SUBSTRUCTURE
     1 ADP301      1 GROUP             4 B     ADP     0 **** ADP B 301
