@<TRIPOS>MOLECULE
2dt5_NAD_1_ligand
   73    77     1     0     0
SMALL
NO_CHARGES


@<TRIPOS>ATOM
     1 PA          32.1480    33.6900    28.0220 P.3          1 NAD301   0.0000
     2 O1A         32.2100    34.9800    27.2830 O.co2        1 NAD301   0.0000
     3 O2A         32.1100    33.6870    29.5000 O.co2        1 NAD301  -1.0000
     4 O5B         30.9250    32.9070    27.4200 O.3          1 NAD301   0.0000
     5 C5B         30.5030    31.5810    27.8570 C.3          1 NAD301   0.0000
     6 C4B         29.0250    31.4620    27.5320 C.3          1 NAD301   0.0000
     7 O4B         28.6340    30.1060    27.9880 O.3          1 NAD301   0.0000
     8 C3B         28.1050    32.4280    28.3420 C.3          1 NAD301   0.0000
     9 O3B         27.2740    33.1620    27.4080 O.3          1 NAD301   0.0000
    10 C2B         27.2780    31.5630    29.2680 C.3          1 NAD301   0.0000
    11 O2B         26.0130    32.0400    29.6170 O.3          1 NAD301   0.0000
    12 C1B         27.3210    30.2180    28.4970 C.3          1 NAD301   0.0000
    13 N9A         27.1570    29.0620    29.3510 N.pl3        1 NAD301   0.0000
    14 C8A         27.6660    28.7270    30.5990 C.2          1 NAD301   0.0000
    15 N7A         27.2670    27.5390    31.0280 N.2          1 NAD301   0.0000
    16 C5A         26.4770    27.0210    30.0820 C.ar         1 NAD301   0.0000
    17 C6A         25.7500    25.7570    29.9750 C.ar         1 NAD301   0.0000
    18 N6A         25.7810    24.8410    30.9140 N.pl3        1 NAD301   0.0000
    19 N1A         25.0350    25.6030    28.8000 N.ar         1 NAD301   0.0000
    20 C2A         24.9590    26.4950    27.8020 C.ar         1 NAD301   0.0000
    21 N3A         25.6270    27.7180    27.8580 N.ar         1 NAD301   0.0000
    22 C4A         26.3810    27.9390    29.0150 C.ar         1 NAD301   0.0000
    23 O3          33.4110    32.8310    27.5890 O.3          1 NAD301   0.0000
    24 PN          34.3200    32.9250    26.2570 P.3          1 NAD301   0.0000
    25 O1N         35.3720    33.9680    26.4980 O.co2        1 NAD301   0.0000
    26 O2N         33.3370    33.0960    25.1260 O.co2        1 NAD301  -1.0000
    27 O5D         35.0090    31.4760    26.2570 O.3          1 NAD301   0.0000
    28 C5D         34.2040    30.2800    26.0080 C.3          1 NAD301   0.0000
    29 C4D         35.0630    29.0900    26.1170 C.3          1 NAD301   0.0000
    30 O4D         36.1610    29.2060    25.1120 O.3          1 NAD301   0.0000
    31 C3D         35.8110    28.9350    27.5130 C.3          1 NAD301   0.0000
    32 O3D         35.9040    27.5370    27.9120 O.3          1 NAD301   0.0000
    33 C2D         37.1730    29.5040    27.1920 C.3          1 NAD301   0.0000
    34 O2D         38.1700    29.2210    28.1210 O.3          1 NAD301   0.0000
    35 C1D         37.3920    28.9090    25.7550 C.3          1 NAD301   0.0000
    36 N1N         38.5630    29.5220    25.0750 N.pl3        1 NAD301   0.0000
    37 C2N         39.1820    28.6700    24.1330 C.2          1 NAD301   0.0000
    38 C3N         39.9340    29.0940    23.1400 C.2          1 NAD301   0.0000
    39 C7N         40.5870    28.0930    22.2280 C.2          1 NAD301   0.0000
    40 O7N         41.4840    28.5080    21.4670 O.2          1 NAD301   0.0000
    41 N7N         40.2170    26.7860    22.2980 N.am         1 NAD301   0.0000
    42 C4N         40.1890    30.5790    22.9100 C.3          1 NAD301   0.0000
    43 C5N         39.0380    31.3840    23.4650 C.3          1 NAD301   0.0000
    44 C6N         38.4730    30.9290    24.6940 C.3          1 NAD301   0.0000
    45 H5B1        30.6483    31.4805    28.8413 H            1 NAD301   0.0000
    46 H5B2        31.0203    30.8772    27.3701 H            1 NAD301   0.0000
    47 H4B         28.8688    31.5643    26.5496 H            1 NAD301   0.0000
    48 H3B         28.6628    33.0637    28.8757 H            1 NAD301   0.0000
    49 H5          26.7161    32.5198    26.8823 H            1 NAD301   0.0000
    50 H2B         27.7986    31.4427    30.1133 H            1 NAD301   0.0000
    51 H7          25.3388    31.7120    28.9552 H            1 NAD301   0.0000
    52 H1B         26.6500    30.2110    27.7556 H            1 NAD301   0.0000
    53 H8A         28.2740    29.3240    31.1223 H            1 NAD301   0.0000
    54 H6A1        25.2683    23.9901    30.7996 H            1 NAD301   0.0000
    55 H6A2        26.3173    24.9938    31.7441 H            1 NAD301   0.0000
    56 H2A         24.4086    26.2776    26.9959 H            1 NAD301   0.0000
    57 H5D1        33.8108    30.3262    25.0897 H            1 NAD301   0.0000
    58 H5D2        33.4684    30.2250    26.6832 H            1 NAD301   0.0000
    59 H4D         34.5237    28.2685    25.9319 H            1 NAD301   0.0000
    60 H3D         35.3577    29.4768    28.2208 H            1 NAD301   0.0000
    61 H17         34.9846    27.1535    27.9997 H            1 NAD301   0.0000
    62 H2D         37.0889    30.4973    27.1125 H            1 NAD301   0.0000
    63 H19         38.9073    28.7139    27.6746 H            1 NAD301   0.0000
    64 H1D         37.5139    27.9182    25.8131 H            1 NAD301   0.0000
    65 H2N         39.0399    27.6846    24.2267 H            1 NAD301   0.0000
    66 H7N1        40.6452    26.1122    21.6958 H            1 NAD301   0.0000
    67 H7N2        39.5168    26.4989    22.9516 H            1 NAD301   0.0000
    68 H4N1        40.2746    30.7537    21.9291 H            1 NAD301   0.0000
    69 H4N2        41.0349    30.8465    23.3713 H            1 NAD301   0.0000
    70 H5N1        38.3104    31.3856    22.7790 H            1 NAD301   0.0000
    71 H5N2        39.3630    32.3188    23.6084 H            1 NAD301   0.0000
    72 H6N1        38.9142    31.4521    25.4232 H            1 NAD301   0.0000
    73 H6N2        37.4995    31.1558    24.6632 H            1 NAD301   0.0000
@<TRIPOS>BOND
     1    1    2      ar
     2    1    3      ar
     3    1    4       1
     4    1   23       1
     5    4    5       1
     6    5    6       1
     7    6    7       1
     8    6    8       1
     9    7   12       1
    10    8    9       1
    11    8   10       1
    12   10   11       1
    13   10   12       1
    14   12   13       1
    15   13   14       1
    16   13   22       1
    17   14   15       2
    18   15   16       1
    19   16   17      ar
    20   16   22      ar
    21   17   18       1
    22   17   19      ar
    23   19   20      ar
    24   20   21      ar
    25   21   22      ar
    26   23   24       1
    27   24   25      ar
    28   24   26      ar
    29   24   27       1
    30   27   28       1
    31   28   29       1
    32   29   30       1
    33   29   31       1
    34   30   35       1
    35   31   32       1
    36   31   33       1
    37   33   34       1
    38   33   35       1
    39   35   36       1
    40   36   37       1
    41   36   44       1
    42   37   38       2
    43   38   39       1
    44   38   42       1
    45   39   40       2
    46   39   41      am
    47   42   43       1
    48   43   44       1
    49   44   73       1
    50    5   45       1
    51    5   46       1
    52    6   47       1
    53    8   48       1
    54    9   49       1
    55   10   50       1
    56   11   51       1
    57   12   52       1
    58   14   53       1
    59   18   54       1
    60   18   55       1
    61   20   56       1
    62   44   72       1
    63   28   57       1
    64   28   58       1
    65   29   59       1
    66   31   60       1
    67   32   61       1
    68   33   62       1
    69   34   63       1
    70   35   64       1
    71   37   65       1
    72   41   66       1
    73   41   67       1
    74   42   68       1
    75   42   69       1
    76   43   70       1
    77   43   71       1
@<TRIPOS>SUBSTRUCTURE
     1 NAD301      1 GROUP             4 A     NAD     0 **** NAD A 301
