@<TRIPOS>MOLECULE
3ssm_SAH_3_ligand
   46    48     1     0     0
SMALL
NO_CHARGES


@<TRIPOS>ATOM
     1 N            8.7200   119.6030    11.6090 N.4          1 SAH601   1.0000
     2 CA           8.3580   120.1570    10.2680 C.3          1 SAH601   0.0000
     3 CB           7.2760   119.3080     9.5960 C.3          1 SAH601   0.0000
     4 CG           7.6180   117.8190     9.5830 C.3          1 SAH601   0.0000
     5 SD           6.6430   117.0010     8.3610 S.3          1 SAH601   0.0000
     6 C            7.8590   121.5660    10.4360 C.2          1 SAH601   0.0000
     7 O            8.0660   122.4280     9.5750 O.co2        1 SAH601   0.0000
     8 OXT          7.2280   121.8960    11.4450 O.co2        1 SAH601  -1.0000
     9 C5'          6.9540   115.2900     8.6820 C.3          1 SAH601   0.0000
    10 C4'          8.3540   114.8570     8.2460 C.3          1 SAH601   0.0000
    11 O4'          8.6890   113.6150     8.8740 O.3          1 SAH601   0.0000
    12 C3'          8.4940   114.6390     6.7450 C.3          1 SAH601   0.0000
    13 O3'          9.5360   115.4870     6.2620 O.3          1 SAH601   0.0000
    14 C2'          8.8970   113.1850     6.5740 C.3          1 SAH601   0.0000
    15 O2'          9.9370   113.0150     5.6020 O.3          1 SAH601   0.0000
    16 C1'          9.3940   112.7790     7.9520 C.3          1 SAH601   0.0000
    17 N9           9.1730   111.3390     8.2550 N.pl3        1 SAH601   0.0000
    18 C8           8.1290   110.5810     7.8650 C.2          1 SAH601   0.0000
    19 N7           8.2470   109.3090     8.3230 N.2          1 SAH601   0.0000
    20 C5           9.3900   109.2370     9.0280 C.ar         1 SAH601   0.0000
    21 C6          10.1190   108.1870     9.7860 C.ar         1 SAH601   0.0000
    22 N6           9.6320   106.9240     9.8770 N.pl3        1 SAH601   0.0000
    23 N1          11.2900   108.5350    10.3810 N.ar         1 SAH601   0.0000
    24 C2          11.7870   109.7870    10.2980 C.ar         1 SAH601   0.0000
    25 N3          11.1780   110.7840     9.6250 N.ar         1 SAH601   0.0000
    26 C4           9.9990   110.5780     8.9800 C.ar         1 SAH601   0.0000
    27 H1           9.4269   120.1743    12.0259 H            1 SAH601   0.0000
    28 H2           7.9101   119.5937    12.1955 H            1 SAH601   0.0000
    29 HA           9.1726   120.1663     9.6880 H            1 SAH601   0.0000
    30 HB1          7.1656   119.6191     8.6521 H            1 SAH601   0.0000
    31 HB2          6.4166   119.4345    10.0913 H            1 SAH601   0.0000
    32 HG1          7.4251   117.4250    10.4817 H            1 SAH601   0.0000
    33 HG2          8.5877   117.7018     9.3688 H            1 SAH601   0.0000
    34 H5'1         6.2801   114.7430     8.1854 H            1 SAH601   0.0000
    35 H5'2         6.8588   115.1255     9.6638 H            1 SAH601   0.0000
    36 H4'          9.0119   115.5527     8.5343 H            1 SAH601   0.0000
    37 H3'          7.6322   114.8286     6.2745 H            1 SAH601   0.0000
    38 H12         10.4090   115.0013     6.3073 H            1 SAH601   0.0000
    39 H2'          8.0999   112.6362     6.3221 H            1 SAH601   0.0000
    40 H14         10.8276   113.0757     6.0527 H            1 SAH601   0.0000
    41 H1'         10.3720   112.9778     8.0159 H            1 SAH601   0.0000
    42 H16          7.3662   110.9129     7.3100 H            1 SAH601   0.0000
    43 H17         10.1356   106.2298    10.3912 H            1 SAH601   0.0000
    44 H18          8.7694   106.6873     9.4299 H            1 SAH601   0.0000
    45 H19         12.6516   109.9855    10.7595 H            1 SAH601   0.0000
    46 H20          9.0650   118.6705    11.5023 H            1 SAH601   0.0000
@<TRIPOS>BOND
     1    1    2       1
     2    2    3       1
     3    2    6       1
     4    3    4       1
     5    4    5       1
     6    5    9       1
     7    6    7      ar
     8    6    8      ar
     9    9   10       1
    10   10   11       1
    11   10   12       1
    12   11   16       1
    13   12   13       1
    14   12   14       1
    15   14   15       1
    16   14   16       1
    17   16   17       1
    18   17   18       1
    19   17   26       1
    20   18   19       2
    21   19   20       1
    22   20   21      ar
    23   20   26      ar
    24   21   22       1
    25   21   23      ar
    26   23   24      ar
    27   24   25      ar
    28   25   26      ar
    29    1   27       1
    30    1   28       1
    31    2   29       1
    32    3   30       1
    33    3   31       1
    34    4   32       1
    35    4   33       1
    36    1   46       1
    37    9   34       1
    38    9   35       1
    39   10   36       1
    40   12   37       1
    41   13   38       1
    42   14   39       1
    43   15   40       1
    44   16   41       1
    45   18   42       1
    46   22   43       1
    47   22   44       1
    48   24   45       1
@<TRIPOS>SUBSTRUCTURE
     1 SAH601      1 GROUP             4 D     SAH     0 **** SAH D 601
