@<TRIPOS>MOLECULE
4c1m_NIH_1_ligand
   37    38     1     0     0
SMALL
NO_CHARGES


@<TRIPOS>ATOM
     1 N1          18.6790   -16.5750    -1.7030 N.2          1 NIH606   0.0000
     2 C2          17.6870   -17.4550    -2.0790 C.2          1 NIH606   0.0000
     3 N3          17.6810   -17.9560    -3.3000 N.pl3        1 NIH606   0.0000
     4 C4          18.6060   -17.6470    -4.1790 C.2          1 NIH606   0.0000
     5 C5          19.6170   -16.7760    -3.8540 C.2          1 NIH606   0.0000
     6 C6          19.6550   -16.2100    -2.5550 C.2          1 NIH606   0.0000
     7 C7          20.6710   -16.4020    -4.7840 C.2          1 NIH606   0.0000
     8 N8          21.1460   -15.1530    -4.5940 N.am         1 NIH606   0.0000
     9 O9          21.1100   -17.2110    -5.6070 O.2          1 NIH606   0.0000
    10 O10         20.5520   -15.4250    -2.2550 O.2          1 NIH606   0.0000
    11 O11         22.1800   -14.5280    -5.2970 O.3          1 NIH606   0.0000
    12 N12         16.6960   -17.8030    -1.1600 N.pl3        1 NIH606   0.0000
    13 C13         15.6030   -18.7480    -1.4340 C.3          1 NIH606   0.0000
    14 C14         16.0580   -20.1910    -1.6150 C.ar         1 NIH606   0.0000
    15 C15         17.3730   -20.5600    -1.4160 C.ar         1 NIH606   0.0000
    16 C16         17.8090   -21.8700    -1.5970 C.ar         1 NIH606   0.0000
    17 C17         16.8810   -22.8460    -1.9230 C.ar         1 NIH606   0.0000
    18 C18         15.5610   -22.4930    -2.1190 C.ar         1 NIH606   0.0000
    19 C19         15.1530   -21.1730    -1.9700 C.ar         1 NIH606   0.0000
    20 C20         14.5440   -23.5430    -2.5050 C.3          1 NIH606   0.0000
    21 F21         15.1540   -24.5510    -3.2220 F            1 NIH606   0.0000
    22 F22         13.9920   -24.1750    -1.4110 F            1 NIH606   0.0000
    23 F23         13.5160   -22.9720    -3.2370 F            1 NIH606   0.0000
    24 C24         19.2700   -22.2370    -1.3890 C.3          1 NIH606   0.0000
    25 F25         19.9310   -21.4200    -0.4860 F            1 NIH606   0.0000
    26 F26         19.3120   -23.5070    -0.8240 F            1 NIH606   0.0000
    27 F27         19.9970   -22.2170    -2.5760 F            1 NIH606   0.0000
    28 H1          18.5741   -18.0496    -5.0938 H            1 NIH606   0.0000
    29 H2          20.7107   -14.6161    -3.8714 H            1 NIH606   0.0000
    30 H3          23.0232   -15.0543    -5.1875 H            1 NIH606   0.0000
    31 H4          16.7315   -17.3813    -0.2540 H            1 NIH606   0.0000
    32 H5          15.1394   -18.4577    -2.2711 H            1 NIH606   0.0000
    33 H6          14.9603   -18.7151    -0.6686 H            1 NIH606   0.0000
    34 H7          18.0335   -19.8646    -1.1329 H            1 NIH606   0.0000
    35 H8          17.1658   -23.8001    -2.0157 H            1 NIH606   0.0000
    36 H9          14.1945   -20.9313    -2.1213 H            1 NIH606   0.0000
    37 H10         16.9521   -18.5882    -3.5628 H            1 NIH606   0.0000
@<TRIPOS>BOND
     1    1    2       2
     2    1    6       1
     3    2    3       1
     4    2   12       1
     5    3    4       1
     6    4    5       2
     7    5    6       1
     8    5    7       1
     9    6   10       2
    10    7    8      am
    11    7    9       2
    12    8   11       1
    13   12   13       1
    14   13   14       1
    15   14   15      ar
    16   14   19      ar
    17   15   16      ar
    18   16   17      ar
    19   16   24       1
    20   17   18      ar
    21   18   19      ar
    22   18   20       1
    23   20   21       1
    24   20   22       1
    25   20   23       1
    26   24   25       1
    27   24   26       1
    28   24   27       1
    29   19   36       1
    30    4   28       1
    31    8   29       1
    32   11   30       1
    33   12   31       1
    34   13   32       1
    35   13   33       1
    36   15   34       1
    37   17   35       1
    38    3   37       1
@<TRIPOS>SUBSTRUCTURE
     1 NIH606      1 GROUP             4 A     NIH     0 **** NIH A 606
