@<TRIPOS>MOLECULE
1ad3_NAD_2_ligand
   70    74     1     0     0
SMALL
NO_CHARGES


@<TRIPOS>ATOM
     1 PA          51.8140    69.8450    44.1390 P.3          1 NAD600   0.0000
     2 O1A         52.6030    69.5710    42.8770 O.co2        1 NAD600   0.0000
     3 O2A         52.5160    70.8370    45.0780 O.co2        1 NAD600  -1.0000
     4 O5B         51.5520    68.4790    44.9520 O.3          1 NAD600   0.0000
     5 C5B         51.7570    67.2030    44.2620 C.3          1 NAD600   0.0000
     6 C4B         51.6920    65.9580    45.1310 C.3          1 NAD600   0.0000
     7 O4B         51.3530    64.9660    44.1120 O.3          1 NAD600   0.0000
     8 C3B         53.1030    65.6390    45.6080 C.3          1 NAD600   0.0000
     9 O3B         53.0620    65.2990    47.0070 O.3          1 NAD600   0.0000
    10 C2B         53.6490    64.6030    44.6230 C.3          1 NAD600   0.0000
    11 O2B         54.7140    63.7140    45.0530 O.3          1 NAD600   0.0000
    12 C1B         52.3600    63.9190    44.1610 C.3          1 NAD600   0.0000
    13 N9A         52.4740    63.1830    42.8740 N.pl3        1 NAD600   0.0000
    14 C8A         52.8210    63.8330    41.7630 C.2          1 NAD600   0.0000
    15 N7A         53.0690    62.9610    40.7720 N.2          1 NAD600   0.0000
    16 C5A         52.8490    61.7700    41.3160 C.ar         1 NAD600   0.0000
    17 C6A         52.8830    60.5820    40.6200 C.ar         1 NAD600   0.0000
    18 N6A         53.1990    60.6160    39.3290 N.pl3        1 NAD600   0.0000
    19 N1A         52.5220    59.4800    41.3180 N.ar         1 NAD600   0.0000
    20 C2A         52.1320    59.5750    42.6010 C.ar         1 NAD600   0.0000
    21 N3A         52.0520    60.7460    43.2590 N.ar         1 NAD600   0.0000
    22 C4A         52.4380    61.8690    42.6260 C.ar         1 NAD600   0.0000
    23 O3          50.3110    70.2640    43.8260 O.3          1 NAD600   0.0000
    24 PN          48.9330    69.3900    43.9970 P.3          1 NAD600   0.0000
    25 O1N         48.8870    69.1790    45.4500 O.co2        1 NAD600   0.0000
    26 O2N         48.8670    68.2690    43.0140 O.co2        1 NAD600  -1.0000
    27 O5D         47.6750    70.3680    43.6190 O.3          1 NAD600   0.0000
    28 C5D         47.4300    70.7440    42.2480 C.3          1 NAD600   0.0000
    29 C4D         46.0700    71.4060    42.2280 C.3          1 NAD600   0.0000
    30 O4D         45.1220    70.5030    42.9080 O.3          1 NAD600   0.0000
    31 C3D         46.0370    72.7340    43.0120 C.3          1 NAD600   0.0000
    32 O3D         44.9190    73.4950    42.4660 O.3          1 NAD600   0.0000
    33 C2D         45.7200    72.2530    44.4540 C.3          1 NAD600   0.0000
    34 O2D         45.1470    73.2250    45.3390 O.3          1 NAD600   0.0000
    35 C1D         44.7100    71.1360    44.1500 C.3          1 NAD600   0.0000
    36 N1N         44.5050    70.1430    45.2600 N.ar         1 NAD600   1.0000
    37 C2N         45.4670    69.8790    46.2280 C.ar         1 NAD600   0.0000
    38 C3N         45.0930    69.0560    47.2780 C.ar         1 NAD600   0.0000
    39 C7N         45.9390    68.7390    48.5230 C.2          1 NAD600   0.0000
    40 O7N         45.3280    68.3990    49.5580 O.2          1 NAD600   0.0000
    41 N7N         47.2580    68.7450    48.3270 N.am         1 NAD600   0.0000
    42 C4N         43.7960    68.5020    47.3450 C.ar         1 NAD600   0.0000
    43 C5N         42.8940    68.7840    46.3050 C.ar         1 NAD600   0.0000
    44 C6N         43.1800    69.5920    45.1940 C.ar         1 NAD600   0.0000
    45 H5B1        52.6594    67.2292    43.8320 H            1 NAD600   0.0000
    46 H5B2        51.0536    67.1204    43.5560 H            1 NAD600   0.0000
    47 H4B         51.0220    66.0190    45.8709 H            1 NAD600   0.0000
    48 H3B         53.6520    66.4693    45.5122 H            1 NAD600   0.0000
    49 H5          53.9860    65.0884    47.3261 H            1 NAD600   0.0000
    50 H2B         54.0006    65.1121    43.8374 H            1 NAD600   0.0000
    51 H7          55.2782    64.1762    45.7372 H            1 NAD600   0.0000
    52 H1B         52.0891    63.2644    44.8668 H            1 NAD600   0.0000
    53 H8A         52.8872    64.8273    41.6794 H            1 NAD600   0.0000
    54 H6A1        53.2312    59.7682    38.7996 H            1 NAD600   0.0000
    55 H6A2        53.4045    61.4893    38.8874 H            1 NAD600   0.0000
    56 H2A         51.8901    58.7364    43.0891 H            1 NAD600   0.0000
    57 H5D1        47.4299    69.9342    41.6613 H            1 NAD600   0.0000
    58 H5D2        48.1314    71.3836    41.9334 H            1 NAD600   0.0000
    59 H4D         45.7785    71.5593    41.2838 H            1 NAD600   0.0000
    60 H3D         46.9022    73.2324    42.9566 H            1 NAD600   0.0000
    61 H17         44.8495    74.3724    42.9408 H            1 NAD600   0.0000
    62 H2D         46.5419    71.8619    44.8681 H            1 NAD600   0.0000
    63 H19         45.8776    73.7089    45.8207 H            1 NAD600   0.0000
    64 H1D         43.8275    71.5744    43.9794 H            1 NAD600   0.0000
    65 H2N         46.3874    70.2656    46.1692 H            1 NAD600   0.0000
    66 H7N1        47.8773    68.5484    49.0871 H            1 NAD600   0.0000
    67 H7N2        47.6278    68.9461    47.4199 H            1 NAD600   0.0000
    68 H4N         43.5258    67.9228    48.1141 H            1 NAD600   0.0000
    69 H5N         41.9813    68.3791    46.3608 H            1 NAD600   0.0000
    70 H6N         42.5386    69.7636    44.4462 H            1 NAD600   0.0000
@<TRIPOS>BOND
     1    1    2      ar
     2    1    3      ar
     3    1    4       1
     4    1   23       1
     5    4    5       1
     6    5    6       1
     7    6    7       1
     8    6    8       1
     9    7   12       1
    10    8    9       1
    11    8   10       1
    12   10   11       1
    13   10   12       1
    14   12   13       1
    15   13   14       1
    16   13   22       1
    17   14   15       2
    18   15   16       1
    19   16   17      ar
    20   16   22      ar
    21   17   18       1
    22   17   19      ar
    23   19   20      ar
    24   20   21      ar
    25   21   22      ar
    26   23   24       1
    27   24   25      ar
    28   24   26      ar
    29   24   27       1
    30   27   28       1
    31   28   29       1
    32   29   30       1
    33   29   31       1
    34   30   35       1
    35   31   32       1
    36   31   33       1
    37   33   34       1
    38   33   35       1
    39   35   36       1
    40   36   37      ar
    41   36   44      ar
    42   37   38      ar
    43   38   39       1
    44   38   42      ar
    45   39   40       2
    46   39   41      am
    47   42   43      ar
    48   43   44      ar
    49   44   70       1
    50    5   45       1
    51    5   46       1
    52    6   47       1
    53    8   48       1
    54    9   49       1
    55   10   50       1
    56   11   51       1
    57   12   52       1
    58   14   53       1
    59   18   54       1
    60   18   55       1
    61   20   56       1
    62   43   69       1
    63   28   57       1
    64   28   58       1
    65   29   59       1
    66   31   60       1
    67   32   61       1
    68   33   62       1
    69   34   63       1
    70   35   64       1
    71   37   65       1
    72   41   66       1
    73   41   67       1
    74   42   68       1
@<TRIPOS>SUBSTRUCTURE
     1 NAD600      1 GROUP             4 B     NAD     0 **** NAD B 600
