@<TRIPOS>MOLECULE
2yw9_NAP_1_ligand
   73    77     1     0     0
SMALL
NO_CHARGES


@<TRIPOS>ATOM
     1 PA          45.0790   -25.3560    75.4310 P.3          1 NAP500   0.0000
     2 O1A         45.0480   -26.3080    74.3050 O.co2        1 NAP500   0.0000
     3 O2A         46.0710   -25.8190    76.4220 O.co2        1 NAP500  -1.0000
     4 O5B         43.6050   -25.2380    76.0920 O.3          1 NAP500   0.0000
     5 C5B         43.3800   -25.0910    77.4860 C.3          1 NAP500   0.0000
     6 C4B         43.1090   -26.4400    78.1570 C.3          1 NAP500   0.0000
     7 O4B         41.9760   -26.3940    79.0200 O.3          1 NAP500   0.0000
     8 C3B         42.8390   -27.5420    77.1430 C.3          1 NAP500   0.0000
     9 O3B         43.6520   -28.6610    77.4220 O.3          1 NAP500   0.0000
    10 C2B         41.3870   -27.8870    77.3850 C.3          1 NAP500   0.0000
    11 O2B         41.0380   -29.1970    76.9870 O.3          1 NAP500   0.0000
    12 C1B         41.2460   -27.6000    78.8660 C.3          1 NAP500   0.0000
    13 N9A         39.8180   -27.5430    79.2340 N.pl3        1 NAP500   0.0000
    14 C8A         38.8140   -26.8190    78.6360 C.2          1 NAP500   0.0000
    15 N7A         37.6510   -27.0860    79.2810 N.2          1 NAP500   0.0000
    16 C5A         37.8940   -27.9750    80.2750 C.ar         1 NAP500   0.0000
    17 C6A         37.0840   -28.5880    81.2300 C.ar         1 NAP500   0.0000
    18 N6A         35.7830   -28.3330    81.2890 N.pl3        1 NAP500   0.0000
    19 N1A         37.6350   -29.4710    82.1310 N.ar         1 NAP500   0.0000
    20 C2A         38.9830   -29.7510    82.0890 C.ar         1 NAP500   0.0000
    21 N3A         39.7820   -29.1440    81.1410 N.ar         1 NAP500   0.0000
    22 C4A         39.2510   -28.2730    80.2490 C.ar         1 NAP500   0.0000
    23 O3          45.4430   -23.8670    74.9050 O.3          1 NAP500   0.0000
    24 PN          46.3350   -22.6950    75.5820 P.3          1 NAP500   0.0000
    25 O1N         46.2030   -21.4540    74.7850 O.co2        1 NAP500   0.0000
    26 O2N         47.6780   -23.2360    75.8940 O.co2        1 NAP500  -1.0000
    27 O5D         45.5500   -22.4940    76.9810 O.3          1 NAP500   0.0000
    28 C5D         46.2180   -22.5060    78.2260 C.3          1 NAP500   0.0000
    29 C4D         45.8660   -21.2400    79.0060 C.3          1 NAP500   0.0000
    30 O4D         46.6130   -20.1310    78.5320 O.3          1 NAP500   0.0000
    31 C3D         44.4010   -20.8740    78.8520 C.3          1 NAP500   0.0000
    32 O3D         43.8850   -20.5370    80.1160 O.3          1 NAP500   0.0000
    33 C2D         44.4140   -19.6560    77.9500 C.3          1 NAP500   0.0000
    34 O2D         43.3170   -18.8070    78.1910 O.3          1 NAP500   0.0000
    35 C1D         45.7530   -19.0270    78.3070 C.3          1 NAP500   0.0000
    36 N1N         46.2990   -18.1620    77.2450 N.ar         1 NAP500   1.0000
    37 C2N         46.5180   -18.6660    75.9940 C.ar         1 NAP500   0.0000
    38 C3N         47.0370   -17.8650    74.9860 C.ar         1 NAP500   0.0000
    39 C7N         47.2810   -18.4270    73.6130 C.2          1 NAP500   0.0000
    40 O7N         47.4040   -17.5530    72.5190 O.2          1 NAP500   0.0000
    41 N7N         47.3910   -19.7440    73.4540 N.am         1 NAP500   0.0000
    42 C4N         47.3360   -16.5380    75.2660 C.ar         1 NAP500   0.0000
    43 C5N         47.1130   -16.0380    76.5440 C.ar         1 NAP500   0.0000
    44 C6N         46.5920   -16.8620    77.5330 C.ar         1 NAP500   0.0000
    45 P2B         40.2380   -29.3480    75.5820 P.3          1 NAP500   0.0000
    46 O1X         41.1130   -28.8570    74.4450 O.co2        1 NAP500   0.0000
    47 O2X         39.8670   -30.7950    75.3550 O.co2        1 NAP500  -1.0000
    48 O3X         38.9670   -28.5230    75.5990 O.co2        1 NAP500  -1.0000
    49 H5B1        42.5901   -24.4940    77.6263 H            1 NAP500   0.0000
    50 H5B2        44.1889   -24.6772    77.9037 H            1 NAP500   0.0000
    51 H4B         43.9111   -26.6939    78.6975 H            1 NAP500   0.0000
    52 H3B         42.9818   -27.2158    76.2085 H            1 NAP500   0.0000
    53 H5          43.0736   -29.4560    77.6046 H            1 NAP500   0.0000
    54 H2B         40.8175   -27.2387    76.8797 H            1 NAP500   0.0000
    55 H1B         41.6933   -28.3264    79.3878 H            1 NAP500   0.0000
    56 H8A         38.9226   -26.2006    77.8577 H            1 NAP500   0.0000
    57 H6A1        35.2164   -28.7814    81.9803 H            1 NAP500   0.0000
    58 H6A2        35.3692   -27.6924    80.6421 H            1 NAP500   0.0000
    59 H2A         39.3820   -30.3927    82.7440 H            1 NAP500   0.0000
    60 H5D1        47.2058   -22.5398    78.0738 H            1 NAP500   0.0000
    61 H5D2        45.9336   -23.3095    78.7490 H            1 NAP500   0.0000
    62 H4D         46.0690   -21.3834    79.9746 H            1 NAP500   0.0000
    63 H3D         43.8834   -21.6233    78.4390 H            1 NAP500   0.0000
    64 H16         44.3733   -21.0490    80.8227 H            1 NAP500   0.0000
    65 H2D         44.4178   -19.9426    76.9920 H            1 NAP500   0.0000
    66 H18         42.4664   -19.3068    78.0273 H            1 NAP500   0.0000
    67 H1D         45.6593   -18.4997    79.1515 H            1 NAP500   0.0000
    68 H2N         46.3018   -19.6233    75.8023 H            1 NAP500   0.0000
    69 H7N1        47.5533   -20.1260    72.5442 H            1 NAP500   0.0000
    70 H7N2        47.3113   -20.3514    74.2444 H            1 NAP500   0.0000
    71 H4N         47.7096   -15.9454    74.5524 H            1 NAP500   0.0000
    72 H5N         47.3281   -15.0837    76.7513 H            1 NAP500   0.0000
    73 H6N         46.4324   -16.5033    78.4527 H            1 NAP500   0.0000
@<TRIPOS>BOND
     1    1    2      ar
     2    1    3      ar
     3    1    4       1
     4    1   23       1
     5    4    5       1
     6    5    6       1
     7    6    7       1
     8    6    8       1
     9    7   12       1
    10    8    9       1
    11    8   10       1
    12   10   11       1
    13   10   12       1
    14   11   45       1
    15   12   13       1
    16   13   14       1
    17   13   22       1
    18   14   15       2
    19   15   16       1
    20   16   17      ar
    21   16   22      ar
    22   17   18       1
    23   17   19      ar
    24   19   20      ar
    25   20   21      ar
    26   21   22      ar
    27   23   24       1
    28   24   25      ar
    29   24   26      ar
    30   24   27       1
    31   27   28       1
    32   28   29       1
    33   29   30       1
    34   29   31       1
    35   30   35       1
    36   31   32       1
    37   31   33       1
    38   33   34       1
    39   33   35       1
    40   35   36       1
    41   36   37      ar
    42   36   44      ar
    43   37   38      ar
    44   38   39       1
    45   38   42      ar
    46   39   40       2
    47   39   41      am
    48   42   43      ar
    49   43   44      ar
    50   45   46      ar
    51   45   47      ar
    52   45   48      ar
    53   43   72       1
    54    5   49       1
    55    5   50       1
    56    6   51       1
    57    8   52       1
    58    9   53       1
    59   10   54       1
    60   12   55       1
    61   14   56       1
    62   18   57       1
    63   18   58       1
    64   20   59       1
    65   44   73       1
    66   28   60       1
    67   28   61       1
    68   29   62       1
    69   31   63       1
    70   32   64       1
    71   33   65       1
    72   34   66       1
    73   35   67       1
    74   37   68       1
    75   41   69       1
    76   41   70       1
    77   42   71       1
@<TRIPOS>SUBSTRUCTURE
     1 NAP500      1 GROUP             4 D     NAP     0 **** NAP D 500
