@<TRIPOS>MOLECULE
4iax_LIZ_1_ligand
   75    76     1     0     0
SMALL
NO_CHARGES


@<TRIPOS>ATOM
     1 N1           2.1810   -17.3000     2.5320 N.pl3        1 LIZ201   0.0000
     2 N3           6.5500   -18.8220     3.8180 N.3          1 LIZ201   0.0000
     3 C4           2.0040   -16.1480     3.4070 C.3          1 LIZ201   0.0000
     4 C5           3.1290   -20.7250     1.6220 C.2          1 LIZ201   0.0000
     5 C6           3.4480   -20.9290     3.1220 C.3          1 LIZ201   0.0000
     6 C7           7.1390   -16.4540     3.5460 C.2          1 LIZ201   0.0000
     7 C8           7.0170   -17.5810     4.5440 C.3          1 LIZ201   0.0000
     8 C10          7.6610   -19.4120     3.0450 C.3          1 LIZ201   0.0000
     9 C13          4.4770   -19.6750     5.0700 C.3          1 LIZ201   0.0000
    10 C15          3.9770   -20.7950     6.0230 C.3          1 LIZ201   0.0000
    11 C17          6.3330   -21.0550     6.9730 C.3          1 LIZ201   0.0000
    12 C20         -0.9580   -20.4600     3.0120 C.ar         1 LIZ201   0.0000
    13 C21         -1.6610   -21.6450     3.4190 C.ar         1 LIZ201   0.0000
    14 C22         -2.1740   -21.7100     4.7550 C.ar         1 LIZ201   0.0000
    15 C24         -1.2430   -19.5670     5.2420 C.ar         1 LIZ201   0.0000
    16 C26         -3.5960   -23.7400     4.6650 C.2          1 LIZ201   0.0000
    17 O7           7.7950   -15.4220     3.8720 O.co2        1 LIZ201   0.0000
    18 O8           6.6250   -16.6160     2.3920 O.co2        1 LIZ201  -1.0000
    19 C9           7.0580   -20.3400     1.9980 C.2          1 LIZ201   0.0000
    20 O10          5.9240   -20.0680     1.5520 O.co2        1 LIZ201   0.0000
    21 O9           7.7030   -21.3760     1.6440 O.co2        1 LIZ201  -1.0000
    22 C14          5.9920   -19.8690     4.7490 C.3          1 LIZ201   0.0000
    23 C18          6.8390   -19.9380     6.0570 C.3          1 LIZ201   0.0000
    24 C16          4.8310   -20.8590     7.3040 C.3          1 LIZ201   0.0000
    25 N2           3.5730   -19.5950     3.8080 N.3          1 LIZ201   0.0000
    26 O6           3.3490   -19.6090     1.1030 O.co2        1 LIZ201   0.0000
    27 O5           2.6340   -21.6540     0.9880 O.co2        1 LIZ201  -1.0000
    28 C12          2.2300   -19.1270     4.2400 C.3          1 LIZ201   0.0000
    29 C11          1.4340   -18.4990     3.0730 C.3          1 LIZ201   0.0000
    30 C3           3.2370   -15.9530     4.2540 C.2          1 LIZ201   0.0000
    31 O4           4.2800   -16.5880     3.9570 O.co2        1 LIZ201   0.0000
    32 O3           3.1610   -15.1880     5.2160 O.co2        1 LIZ201  -1.0000
    33 C2           1.7470   -16.9400     1.2230 C.2          1 LIZ201   0.0000
    34 C1           2.6080   -16.2350     0.4160 C.2          1 LIZ201   0.0000
    35 O2           3.8010   -16.1130     0.7570 O.3          1 LIZ201   0.0000
    36 O1           2.1990   -15.7770    -0.6420 O.3          1 LIZ201   0.0000
    37 C25         -0.0260   -18.1270     3.5770 C.3          1 LIZ201   0.0000
    38 C19         -0.7730   -19.4170     3.9520 C.ar         1 LIZ201   0.0000
    39 C23         -1.9430   -20.6910     5.6130 C.ar         1 LIZ201   0.0000
    40 N4          -2.7770   -22.8940     5.3050 N.2          1 LIZ201   0.0000
    41 S1          -4.0500   -23.5030     3.0910 S.3          1 LIZ201   0.0000
    42 N5          -4.0880   -24.7950     5.3370 N.pl3        1 LIZ201   0.0000
    43 H1           1.2143   -16.3010     4.0011 H            1 LIZ201   0.0000
    44 H2           1.8502   -15.3305     2.8520 H            1 LIZ201   0.0000
    45 H3           4.3089   -21.4298     3.2123 H            1 LIZ201   0.0000
    46 H4           2.7111   -21.4531     3.5489 H            1 LIZ201   0.0000
    47 H5           7.9064   -17.7534     4.9675 H            1 LIZ201   0.0000
    48 H6           6.3536   -17.3346     5.2505 H            1 LIZ201   0.0000
    49 H7           8.2614   -19.9305     3.6538 H            1 LIZ201   0.0000
    50 H8           8.1855   -18.6883     2.5965 H            1 LIZ201   0.0000
    51 H9           4.3850   -18.8067     5.5574 H            1 LIZ201   0.0000
    52 H10          4.0320   -21.6744     5.5500 H            1 LIZ201   0.0000
    53 H11          3.0267   -20.6101     6.2734 H            1 LIZ201   0.0000
    54 H12          6.8598   -21.0456     7.8229 H            1 LIZ201   0.0000
    55 H13          6.4554   -21.9353     6.5147 H            1 LIZ201   0.0000
    56 H14         -0.6051   -20.3731     2.0804 H            1 LIZ201   0.0000
    57 H15         -1.7893   -22.4070     2.7842 H            1 LIZ201   0.0000
    58 H16         -1.0719   -18.8481     5.9157 H            1 LIZ201   0.0000
    59 H17          6.0856   -20.7524     4.2898 H            1 LIZ201   0.0000
    60 H18          7.7942   -20.1155     5.8202 H            1 LIZ201   0.0000
    61 H19          6.7717   -19.0638     6.5378 H            1 LIZ201   0.0000
    62 H20          4.5188   -21.6255     7.8653 H            1 LIZ201   0.0000
    63 H21          4.7186   -20.0056     7.8130 H            1 LIZ201   0.0000
    64 H22          2.3427   -18.4420     4.9598 H            1 LIZ201   0.0000
    65 H23          1.7163   -19.9063     4.5990 H            1 LIZ201   0.0000
    66 H24          1.3536   -19.1778     2.3431 H            1 LIZ201   0.0000
    67 H25          0.8360   -17.1947     0.8987 H            1 LIZ201   0.0000
    68 H26          4.4368   -15.6024     0.1781 H            1 LIZ201   0.0000
    69 H27          1.2465   -15.9170    -0.9125 H            1 LIZ201   0.0000
    70 H28         -0.5210   -17.6532     2.8487 H            1 LIZ201   0.0000
    71 H29          0.0379   -17.5321     4.3783 H            1 LIZ201   0.0000
    72 H30         -2.2925   -20.7568     6.5476 H            1 LIZ201   0.0000
    73 H31         -4.7008   -25.4384     4.8783 H            1 LIZ201   0.0000
    74 H32         -3.8412   -24.9365     6.2957 H            1 LIZ201   0.0000
    75 H33         -4.6629   -24.1545     2.6439 H            1 LIZ201   0.0000
@<TRIPOS>BOND
     1    1    3       1
     2    1   29       1
     3    1   33       1
     4    2    7       1
     5    2    8       1
     6    2   22       1
     7    3   30       1
     8    4    5       1
     9    4   26      ar
    10    4   27      ar
    11    5   25       1
    12    6    7       1
    13    6   17      ar
    14    6   18      ar
    15    8   19       1
    16    9   10       1
    17    9   22       1
    18    9   25       1
    19   10   24       1
    20   11   23       1
    21   11   24       1
    22   12   13      ar
    23   12   38      ar
    24   13   14      ar
    25   14   39      ar
    26   14   40       1
    27   15   38      ar
    28   15   39      ar
    29   16   40       2
    30   16   41       1
    31   16   42       1
    32   19   20      ar
    33   19   21      ar
    34   22   23       1
    35   25   28       1
    36   28   29       1
    37   29   37       1
    38   30   31      ar
    39   30   32      ar
    40   33   34       2
    41   34   35       1
    42   34   36       1
    43   37   38       1
    44    3   43       1
    45    3   44       1
    46    5   45       1
    47    5   46       1
    48    7   47       1
    49    7   48       1
    50    8   49       1
    51    8   50       1
    52    9   51       1
    53   10   52       1
    54   10   53       1
    55   11   54       1
    56   11   55       1
    57   12   56       1
    58   13   57       1
    59   15   58       1
    60   39   72       1
    61   42   74       1
    62   22   59       1
    63   23   60       1
    64   23   61       1
    65   24   62       1
    66   24   63       1
    67   41   75       1
    68   28   64       1
    69   28   65       1
    70   29   66       1
    71   42   73       1
    72   33   67       1
    73   35   68       1
    74   36   69       1
    75   37   70       1
    76   37   71       1
@<TRIPOS>SUBSTRUCTURE
     1 LIZ201      1 GROUP             4 A     LIZ     0 **** LIZ A 201
