@<TRIPOS>MOLECULE
2gdz_NAD_1_ligand
   70    74     1     0     0
SMALL
NO_CHARGES


@<TRIPOS>ATOM
     1 PA          31.8000    17.2480    80.9670 P.3          1 NAD300   0.0000
     2 O1A         32.9820    17.3770    81.8820 O.co2        1 NAD300   0.0000
     3 O2A         32.0390    16.3240    79.8340 O.co2        1 NAD300  -1.0000
     4 O5B         31.2120    18.6250    80.4110 O.3          1 NAD300   0.0000
     5 C5B         31.0550    19.7110    81.2970 C.3          1 NAD300   0.0000
     6 C4B         31.2960    21.0050    80.5060 C.3          1 NAD300   0.0000
     7 O4B         31.0650    22.0800    81.4250 O.3          1 NAD300   0.0000
     8 C3B         32.7380    21.1370    79.9680 C.3          1 NAD300   0.0000
     9 O3B         32.7190    21.5910    78.6250 O.3          1 NAD300   0.0000
    10 C2B         33.3660    22.1620    80.9130 C.3          1 NAD300   0.0000
    11 O2B         34.4220    22.9540    80.3710 O.3          1 NAD300   0.0000
    12 C1B         32.1300    22.9990    81.3400 C.3          1 NAD300   0.0000
    13 N9A         32.3420    23.7080    82.6180 N.pl3        1 NAD300   0.0000
    14 C8A         32.7100    23.1600    83.8300 C.2          1 NAD300   0.0000
    15 N7A         32.8260    24.1670    84.7270 N.2          1 NAD300   0.0000
    16 C5A         32.4850    25.3240    84.0990 C.ar         1 NAD300   0.0000
    17 C6A         32.4270    26.6520    84.5040 C.ar         1 NAD300   0.0000
    18 N6A         32.7350    26.9780    85.7620 N.pl3        1 NAD300   0.0000
    19 N1A         32.0770    27.6200    83.5900 N.ar         1 NAD300   0.0000
    20 C2A         31.7740    27.3360    82.2640 C.ar         1 NAD300   0.0000
    21 N3A         31.8510    26.0320    81.8510 N.ar         1 NAD300   0.0000
    22 C4A         32.1840    25.0400    82.7640 C.ar         1 NAD300   0.0000
    23 O3          30.6580    16.6340    81.9100 O.3          1 NAD300   0.0000
    24 PN          29.1460    16.2940    81.5530 P.3          1 NAD300   0.0000
    25 O1N         28.7700    16.5510    80.1520 O.co2        1 NAD300   0.0000
    26 O2N         28.9420    14.9120    82.0160 O.co2        1 NAD300  -1.0000
    27 O5D         28.4160    17.3330    82.5620 O.3          1 NAD300   0.0000
    28 C5D         27.3350    18.2110    82.1960 C.3          1 NAD300   0.0000
    29 C4D         26.2630    18.1090    83.3260 C.3          1 NAD300   0.0000
    30 O4D         25.6690    16.7660    83.4130 O.3          1 NAD300   0.0000
    31 C3D         26.8860    18.4080    84.7060 C.3          1 NAD300   0.0000
    32 O3D         26.0700    19.3060    85.4390 O.3          1 NAD300   0.0000
    33 C2D         26.8940    17.0250    85.3590 C.3          1 NAD300   0.0000
    34 O2D         26.9150    17.1110    86.7820 O.3          1 NAD300   0.0000
    35 C1D         25.6040    16.4370    84.7880 C.3          1 NAD300   0.0000
    36 N1N         25.4880    14.9580    84.9350 N.ar         1 NAD300   1.0000
    37 C2N         26.4220    14.1390    84.3380 C.ar         1 NAD300   0.0000
    38 C3N         26.3100    12.7540    84.4700 C.ar         1 NAD300   0.0000
    39 C7N         27.3680    11.8790    83.8430 C.2          1 NAD300   0.0000
    40 O7N         27.3770    10.5790    84.2130 O.2          1 NAD300   0.0000
    41 N7N         28.2360    12.3510    82.9380 N.am         1 NAD300   0.0000
    42 C4N         25.2190    12.1840    85.1320 C.ar         1 NAD300   0.0000
    43 C5N         24.2610    13.0530    85.6980 C.ar         1 NAD300   0.0000
    44 C6N         24.3880    14.4400    85.5650 C.ar         1 NAD300   0.0000
    45 H5B1        31.7180    19.6400    82.0422 H            1 NAD300   0.0000
    46 H5B2        30.1287    19.7108    81.6738 H            1 NAD300   0.0000
    47 H4B         30.6463    21.0633    79.7481 H            1 NAD300   0.0000
    48 H3B         33.2169    20.2616    80.0340 H            1 NAD300   0.0000
    49 H5          32.2700    22.4835    78.5812 H            1 NAD300   0.0000
    50 H2B         33.7137    21.6793    81.7168 H            1 NAD300   0.0000
    51 H7          34.0807    23.4736    79.5877 H            1 NAD300   0.0000
    52 H1B         31.9268    23.6684    80.6255 H            1 NAD300   0.0000
    53 H8A         32.8640    22.1891    84.0134 H            1 NAD300   0.0000
    54 H6A1        32.6939    27.9331    86.0554 H            1 NAD300   0.0000
    55 H6A2        33.0067    26.2670    86.4105 H            1 NAD300   0.0000
    56 H2A         31.5076    28.0619    81.6299 H            1 NAD300   0.0000
    57 H5D1        26.9413    17.9255    81.3222 H            1 NAD300   0.0000
    58 H5D2        27.6666    19.1514    82.1209 H            1 NAD300   0.0000
    59 H4D         25.5378    18.7737    83.1464 H            1 NAD300   0.0000
    60 H3D         27.8153    18.7647    84.6102 H            1 NAD300   0.0000
    61 H17         25.1138    19.1786    85.1753 H            1 NAD300   0.0000
    62 H2D         27.6813    16.4993    85.0367 H            1 NAD300   0.0000
    63 H19         27.7364    17.6007    87.0743 H            1 NAD300   0.0000
    64 H1D         24.8130    16.8830    85.2068 H            1 NAD300   0.0000
    65 H2N         27.1756    14.5348    83.8132 H            1 NAD300   0.0000
    66 H7N1        28.9249    11.7440    82.5419 H            1 NAD300   0.0000
    67 H7N2        28.1949    13.3103    82.6586 H            1 NAD300   0.0000
    68 H4N         25.1200    11.1914    85.2026 H            1 NAD300   0.0000
    69 H5N         23.4835    12.6732    86.1992 H            1 NAD300   0.0000
    70 H6N         23.6814    15.0480    85.9270 H            1 NAD300   0.0000
@<TRIPOS>BOND
     1    1    2      ar
     2    1    3      ar
     3    1    4       1
     4    1   23       1
     5    4    5       1
     6    5    6       1
     7    6    7       1
     8    6    8       1
     9    7   12       1
    10    8    9       1
    11    8   10       1
    12   10   11       1
    13   10   12       1
    14   12   13       1
    15   13   14       1
    16   13   22       1
    17   14   15       2
    18   15   16       1
    19   16   17      ar
    20   16   22      ar
    21   17   18       1
    22   17   19      ar
    23   19   20      ar
    24   20   21      ar
    25   21   22      ar
    26   23   24       1
    27   24   25      ar
    28   24   26      ar
    29   24   27       1
    30   27   28       1
    31   28   29       1
    32   29   30       1
    33   29   31       1
    34   30   35       1
    35   31   32       1
    36   31   33       1
    37   33   34       1
    38   33   35       1
    39   35   36       1
    40   36   37      ar
    41   36   44      ar
    42   37   38      ar
    43   38   39       1
    44   38   42      ar
    45   39   40       2
    46   39   41      am
    47   42   43      ar
    48   43   44      ar
    49   44   70       1
    50    5   45       1
    51    5   46       1
    52    6   47       1
    53    8   48       1
    54    9   49       1
    55   10   50       1
    56   11   51       1
    57   12   52       1
    58   14   53       1
    59   18   54       1
    60   18   55       1
    61   20   56       1
    62   43   69       1
    63   28   57       1
    64   28   58       1
    65   29   59       1
    66   31   60       1
    67   32   61       1
    68   33   62       1
    69   34   63       1
    70   35   64       1
    71   37   65       1
    72   41   66       1
    73   41   67       1
    74   42   68       1
@<TRIPOS>SUBSTRUCTURE
     1 NAD300      1 GROUP             4 A     NAD     0 **** NAD A 300
