@<TRIPOS>MOLECULE
2jle_I15_1_ligand
   31    33     1     0     0
SMALL
NO_CHARGES


@<TRIPOS>ATOM
     1 C1          -9.1510   -12.9180    15.6940 C.ar         1 I151546   0.0000
     2 C2          -8.6760   -12.3830    16.9040 C.ar         1 I151546   0.0000
     3 C3          -8.2530   -13.3660    14.7040 C.ar         1 I151546   0.0000
     4 C4         -10.5140   -13.1580    15.1920 C.2          1 I151546   0.0000
     5 O5          -9.6080   -11.9700    17.8430 O.3          1 I151546   0.0000
     6 C6          -7.2950   -12.2340    17.1940 C.ar         1 I151546   0.0000
     7 N7          -9.1120   -13.8540    13.6780 N.pl3        1 I151546   0.0000
     8 C8          -6.9170   -13.2410    14.9470 C.ar         1 I151546   0.0000
     9 N9         -10.4600   -13.7180    13.9460 N.2          1 I151546   0.0000
    10 C10        -11.7130   -12.8660    15.9620 C.3          1 I151546   0.0000
    11 C11         -9.7030   -12.5490    19.1130 C.ar         1 I151546   0.0000
    12 C12         -6.3980   -12.6910    16.1630 C.ar         1 I151546   0.0000
    13 C13        -10.1260   -13.8710    19.2030 C.ar         1 I151546   0.0000
    14 C14         -9.4440   -11.8010    20.2920 C.ar         1 I151546   0.0000
    15 C15        -10.2850   -14.4900    20.3850 C.ar         1 I151546   0.0000
    16 C16         -9.6220   -12.4960    21.4870 C.ar         1 I151546   0.0000
    17 C17         -9.9900   -13.8290    21.5660 C.ar         1 I151546   0.0000
    18 C18        -10.6340   -15.8570    20.3480 C.1          1 I151546   0.0000
    19 C19         -9.4360   -11.7980    22.6850 C.1          1 I151546   0.0000
    20 N23         -9.2840   -11.2300    23.6610 N.1          1 I151546   0.0000
    21 F1          -6.8700   -11.6620    18.4390 F            1 I151546   0.0000
    22 N1         -10.9080   -16.9370    20.3200 N.1          1 I151546   0.0000
    23 H1          -8.7672   -14.2618    12.8326 H            1 I151546   0.0000
    24 H2          -6.2723   -13.5464    14.2462 H            1 I151546   0.0000
    25 H3         -12.5212   -13.1077    15.4249 H            1 I151546   0.0000
    26 H4         -11.7036   -13.3987    16.8083 H            1 I151546   0.0000
    27 H5         -11.7385   -11.8909    16.1822 H            1 I151546   0.0000
    28 H6          -5.4093   -12.6238    16.2972 H            1 I151546   0.0000
    29 H7         -10.3178   -14.3766    18.3618 H            1 I151546   0.0000
    30 H8          -9.1546   -10.8441    20.2667 H            1 I151546   0.0000
    31 H9         -10.0411   -14.2990    22.4472 H            1 I151546   0.0000
@<TRIPOS>BOND
     1    1    2      ar
     2    1    3      ar
     3    1    4       1
     4    2    5       1
     5    2    6      ar
     6    3    7       1
     7    3    8      ar
     8    4    9       2
     9    4   10       1
    10    5   11       1
    11    6   12      ar
    12    6   21       1
    13    7    9       1
    14    8   12      ar
    15   11   13      ar
    16   11   14      ar
    17   13   15      ar
    18   14   16      ar
    19   15   17      ar
    20   15   18       1
    21   16   17      ar
    22   16   19       1
    23   18   22       3
    24   19   20       3
    25    7   23       1
    26    8   24       1
    27   10   25       1
    28   10   26       1
    29   10   27       1
    30   12   28       1
    31   13   29       1
    32   14   30       1
    33   17   31       1
@<TRIPOS>SUBSTRUCTURE
     1 I151546     1 GROUP             4 A     I15     0 **** I15 A1546
