@<TRIPOS>MOLECULE
3l4s_NAD_2_ligand
   70    74     1     0     0
SMALL
NO_CHARGES


@<TRIPOS>ATOM
     1 PA         -36.7690     0.1380    23.0040 P.3          1 NAD337   0.0000
     2 O1A        -35.6000     0.9480    22.6350 O.co2        1 NAD337   0.0000
     3 O2A        -36.8680    -1.2270    22.4230 O.co2        1 NAD337  -1.0000
     4 O5B        -38.0970     0.9310    22.5600 O.3          1 NAD337   0.0000
     5 C5B        -38.1580     2.2980    22.6130 C.3          1 NAD337   0.0000
     6 C4B        -38.8980     2.7150    21.3600 C.3          1 NAD337   0.0000
     7 O4B        -39.1350     4.1170    21.4830 O.3          1 NAD337   0.0000
     8 C3B        -38.0250     2.5670    20.1320 C.3          1 NAD337   0.0000
     9 O3B        -38.6810     1.7720    19.1720 O.3          1 NAD337   0.0000
    10 C2B        -37.7710     3.9980    19.6600 C.3          1 NAD337   0.0000
    11 O2B        -37.7620     4.1270    18.2660 O.3          1 NAD337   0.0000
    12 C1B        -38.9380     4.7420    20.2590 C.3          1 NAD337   0.0000
    13 N9A        -38.7750     6.1520    20.6350 N.pl3        1 NAD337   0.0000
    14 C8A        -37.7190     6.8190    21.2260 C.2          1 NAD337   0.0000
    15 N7A        -38.0880     8.1050    21.3750 N.2          1 NAD337   0.0000
    16 C5A        -39.3550     8.2610    20.9150 C.ar         1 NAD337   0.0000
    17 C6A        -40.2140     9.3400    20.8350 C.ar         1 NAD337   0.0000
    18 N6A        -39.8690    10.5510    21.3250 N.pl3        1 NAD337   0.0000
    19 N1A        -41.4630     9.1350    20.2770 N.ar         1 NAD337   0.0000
    20 C2A        -41.8780     7.9230    19.8040 C.ar         1 NAD337   0.0000
    21 N3A        -41.0200     6.8600    19.9070 N.ar         1 NAD337   0.0000
    22 C4A        -39.7940     7.0320    20.4550 C.ar         1 NAD337   0.0000
    23 O3         -36.8000     0.0820    24.6090 O.3          1 NAD337   0.0000
    24 PN         -37.4770    -1.0740    25.4460 P.3          1 NAD337   0.0000
    25 O1N        -36.4670    -2.0550    25.8560 O.co2        1 NAD337   0.0000
    26 O2N        -38.7730    -1.5110    24.7930 O.co2        1 NAD337  -1.0000
    27 O5D        -37.7520    -0.0080    26.5750 O.3          1 NAD337   0.0000
    28 C5D        -38.9050     0.7980    26.5200 C.3          1 NAD337   0.0000
    29 C4D        -39.2170     1.2800    27.9520 C.3          1 NAD337   0.0000
    30 O4D        -39.5510     0.1310    28.7060 O.3          1 NAD337   0.0000
    31 C3D        -38.0030     1.8740    28.6780 C.3          1 NAD337   0.0000
    32 O3D        -38.4420     2.8640    29.5610 O.3          1 NAD337   0.0000
    33 C2D        -37.4800     0.6880    29.5250 C.3          1 NAD337   0.0000
    34 O2D        -36.9550     0.9830    30.7850 O.3          1 NAD337   0.0000
    35 C1D        -38.7540    -0.0120    29.8720 C.3          1 NAD337   0.0000
    36 N1N        -38.5320    -1.4180    30.2370 N.ar         1 NAD337   1.0000
    37 C2N        -37.6910    -2.2590    29.5420 C.ar         1 NAD337   0.0000
    38 C3N        -37.5520    -3.5930    29.9460 C.ar         1 NAD337   0.0000
    39 C7N        -36.7020    -4.5790    29.1900 C.2          1 NAD337   0.0000
    40 O7N        -36.3428    -5.7651    29.8336 O.2          1 NAD337   0.0000
    41 N7N        -36.3041    -4.3692    27.9111 N.am         1 NAD337   0.0000
    42 C4N        -38.3000    -4.0420    31.0430 C.ar         1 NAD337   0.0000
    43 C5N        -39.1470    -3.1830    31.7380 C.ar         1 NAD337   0.0000
    44 C6N        -39.2510    -1.8610    31.3160 C.ar         1 NAD337   0.0000
    45 H5B1       -37.2378     2.6894    22.6227 H            1 NAD337   0.0000
    46 H5B2       -38.6551     2.5949    23.4283 H            1 NAD337   0.0000
    47 H4B        -39.7549     2.2095    21.2593 H            1 NAD337   0.0000
    48 H3B        -37.1579     2.1387    20.3864 H            1 NAD337   0.0000
    49 H5         -39.5440     2.2059    18.9133 H            1 NAD337   0.0000
    50 H2B        -36.9124     4.3392    20.0427 H            1 NAD337   0.0000
    51 H7         -38.6876     4.3255    17.9436 H            1 NAD337   0.0000
    52 H1B        -39.7478     4.6317    19.6828 H            1 NAD337   0.0000
    53 H8A        -36.8421     6.4199    21.4937 H            1 NAD337   0.0000
    54 H6A1       -40.5066    11.3183    21.2563 H            1 NAD337   0.0000
    55 H6A2       -38.9761    10.6799    21.7564 H            1 NAD337   0.0000
    56 H2A        -42.7834     7.8144    19.3937 H            1 NAD337   0.0000
    57 H5D1       -39.6743     0.2665    26.1655 H            1 NAD337   0.0000
    58 H5D2       -38.7412     1.5849    25.9250 H            1 NAD337   0.0000
    59 H4D        -39.9766     1.9304    27.9466 H            1 NAD337   0.0000
    60 H3D        -37.3124     2.2160    28.0407 H            1 NAD337   0.0000
    61 H17        -39.3631     2.6412    29.8803 H            1 NAD337   0.0000
    62 H2D        -36.8669     0.0996    28.9979 H            1 NAD337   0.0000
    63 H19        -37.0051     1.9689    30.9445 H            1 NAD337   0.0000
    64 H1D        -39.1949     0.4620    30.6342 H            1 NAD337   0.0000
    65 H2N        -37.1815    -1.9184    28.7518 H            1 NAD337   0.0000
    66 H7N1       -35.7779    -5.0702    27.4298 H            1 NAD337   0.0000
    67 H7N2       -36.5368    -3.5134    27.4491 H            1 NAD337   0.0000
    68 H4N        -38.2239    -4.9964    31.3316 H            1 NAD337   0.0000
    69 H5N        -39.6704    -3.5096    32.5250 H            1 NAD337   0.0000
    70 H6N        -39.8545    -1.2301    31.8035 H            1 NAD337   0.0000
@<TRIPOS>BOND
     1    1    2      ar
     2    1    3      ar
     3    1    4       1
     4    1   23       1
     5    4    5       1
     6    5    6       1
     7    6    7       1
     8    6    8       1
     9    7   12       1
    10    8    9       1
    11    8   10       1
    12   10   11       1
    13   10   12       1
    14   12   13       1
    15   13   14       1
    16   13   22       1
    17   14   15       2
    18   15   16       1
    19   16   17      ar
    20   16   22      ar
    21   17   18       1
    22   17   19      ar
    23   19   20      ar
    24   20   21      ar
    25   21   22      ar
    26   23   24       1
    27   24   25      ar
    28   24   26      ar
    29   24   27       1
    30   27   28       1
    31   28   29       1
    32   29   30       1
    33   29   31       1
    34   30   35       1
    35   31   32       1
    36   31   33       1
    37   33   34       1
    38   33   35       1
    39   35   36       1
    40   36   37      ar
    41   36   44      ar
    42   37   38      ar
    43   38   39       1
    44   38   42      ar
    45   39   40       2
    46   39   41      am
    47   42   43      ar
    48   43   44      ar
    49   44   70       1
    50    5   45       1
    51    5   46       1
    52    6   47       1
    53    8   48       1
    54    9   49       1
    55   10   50       1
    56   11   51       1
    57   12   52       1
    58   14   53       1
    59   18   54       1
    60   18   55       1
    61   20   56       1
    62   43   69       1
    63   28   57       1
    64   28   58       1
    65   29   59       1
    66   31   60       1
    67   32   61       1
    68   33   62       1
    69   34   63       1
    70   35   64       1
    71   37   65       1
    72   41   66       1
    73   41   67       1
    74   42   68       1
@<TRIPOS>SUBSTRUCTURE
     1 NAD337      1 GROUP             4 P     NAD     0 **** NAD P 337
