@<TRIPOS>MOLECULE
1lfd_GNP_1_ligand
   45    47     1     0     0
SMALL
NO_CHARGES


@<TRIPOS>ATOM
     1 PG          63.8370    81.0630    41.0740 P.3          1 GNP1380   0.0000
     2 O1G         63.6460    81.9890    42.3650 O.co2        1 GNP1380   0.0000
     3 O2G         64.2720    79.7560    41.5340 O.co2        1 GNP1380  -1.0000
     4 O3G         64.9040    81.7480    40.3870 O.co2        1 GNP1380  -1.0000
     5 N3B         62.4140    80.9690    40.2710 N.3          1 GNP1380   0.0000
     6 PB          61.6230    82.2400    39.5830 P.3          1 GNP1380   0.0000
     7 O1B         60.9290    83.1420    40.5350 O.co2        1 GNP1380   0.0000
     8 O2B         62.4280    82.9720    38.5830 O.co2        1 GNP1380  -1.0000
     9 O3A         60.4590    81.5280    38.7610 O.3          1 GNP1380   0.0000
    10 PA          60.5080    81.2120    37.1330 P.3          1 GNP1380   0.0000
    11 O1A         60.4580    82.4730    36.3360 O.co2        1 GNP1380   0.0000
    12 O2A         61.5820    80.2310    36.8340 O.co2        1 GNP1380  -1.0000
    13 O5'         59.0870    80.4950    37.0020 O.3          1 GNP1380   0.0000
    14 C5'         58.8000    79.2090    37.5920 C.3          1 GNP1380   0.0000
    15 C4'         57.7250    78.4540    36.7870 C.3          1 GNP1380   0.0000
    16 O4'         56.5090    79.2440    36.7180 O.3          1 GNP1380   0.0000
    17 C3'         58.1910    78.2350    35.3250 C.3          1 GNP1380   0.0000
    18 O3'         57.7620    76.9760    34.7470 O.3          1 GNP1380   0.0000
    19 C2'         57.5330    79.4160    34.6140 C.3          1 GNP1380   0.0000
    20 O2'         57.2750    79.2350    33.2100 O.3          1 GNP1380   0.0000
    21 C1'         56.1990    79.5290    35.3530 C.3          1 GNP1380   0.0000
    22 N9          55.6400    80.8950    35.2650 N.pl3        1 GNP1380   0.0000
    23 C8          56.2730    82.0900    35.5070 C.2          1 GNP1380   0.0000
    24 N7          55.5410    83.1180    35.3480 N.2          1 GNP1380   0.0000
    25 C5          54.3240    82.6060    34.9670 C.2          1 GNP1380   0.0000
    26 C6          53.1220    83.2770    34.6500 C.2          1 GNP1380   0.0000
    27 O6          52.9120    84.5000    34.6500 O.2          1 GNP1380   0.0000
    28 N1          52.1070    82.3710    34.3080 N.pl3        1 GNP1380   0.0000
    29 C2          52.2310    80.9970    34.2770 C.2          1 GNP1380   0.0000
    30 N2          51.1440    80.3050    33.9300 N.pl3        1 GNP1380   0.0000
    31 N3          53.3740    80.3730    34.5790 N.2          1 GNP1380   0.0000
    32 C4          54.3690    81.2370    34.9120 C.2          1 GNP1380   0.0000
    33 H3B         62.5720    80.3205    39.5264 H            1 GNP1380   0.0000
    34 H5'1        58.4720    79.3449    38.5268 H            1 GNP1380   0.0000
    35 H5'2        59.6380    78.6635    37.6088 H            1 GNP1380   0.0000
    36 H4'         57.5337    77.5724    37.2186 H            1 GNP1380   0.0000
    37 H3'         59.1862    78.3145    35.2687 H            1 GNP1380   0.0000
    38 H6          56.7629    76.9328    34.7462 H            1 GNP1380   0.0000
    39 H2'         58.0737    80.2449    34.7574 H            1 GNP1380   0.0000
    40 H8          57.1097    78.2665    33.0236 H            1 GNP1380   0.0000
    41 H1'         55.5454    78.8611    34.9970 H            1 GNP1380   0.0000
    42 H10         57.2317    82.1470    35.7856 H            1 GNP1380   0.0000
    43 H11         51.2158    82.7544    34.0655 H            1 GNP1380   0.0000
    44 H12         51.1783    79.3063    33.8914 H            1 GNP1380   0.0000
    45 H13         50.2952    80.7851    33.7086 H            1 GNP1380   0.0000
@<TRIPOS>BOND
     1    1    2      ar
     2    1    3      ar
     3    1    4      ar
     4    1    5       1
     5    5    6       1
     6    6    7      ar
     7    6    8      ar
     8    6    9       1
     9    9   10       1
    10   10   11      ar
    11   10   12      ar
    12   10   13       1
    13   13   14       1
    14   14   15       1
    15   15   16       1
    16   15   17       1
    17   16   21       1
    18   17   18       1
    19   17   19       1
    20   19   20       1
    21   19   21       1
    22   21   22       1
    23   22   23       1
    24   22   32       1
    25   23   24       2
    26   24   25       1
    27   25   26       1
    28   25   32       2
    29   26   27       2
    30   26   28       1
    31   28   29       1
    32   29   30       1
    33   29   31       2
    34   31   32       1
    35   30   45       1
    36   30   44       1
    37    5   33       1
    38   28   43       1
    39   23   42       1
    40   14   34       1
    41   14   35       1
    42   15   36       1
    43   17   37       1
    44   18   38       1
    45   19   39       1
    46   20   40       1
    47   21   41       1
@<TRIPOS>SUBSTRUCTURE
     1 GNP1380     1 GROUP             4 B     GNP     0 **** GNP B1380
