@<TRIPOS>MOLECULE
./coach420/2dzb/ligand.pdb
 22 23 0 0 0
SMALL
GASTEIGER

@<TRIPOS>ATOM
      1  N1       -32.9670   20.6910   10.0720 N.2   1301  HH21301    -0.2518
      2  C2       -32.5980   19.5880   10.6650 C.2   1301  HH21301     0.1160
      3  C3       -32.8570   19.2350   12.1880 C.3   1301  HH21301     0.3063
      4  N4       -33.6090   20.3620   12.8760 N.2   1301  HH21301    -0.0551
      5  N5       -34.7240   22.5790   12.8790 N.2   1301  HH21301     0.0342
      6  C6       -35.0990   23.7130   12.1980 C.2   1301  HH21301     0.5246
      7  N6       -35.7930   24.7140   12.8230 N.pl3 1301  HH21301     0.1572
      8  N7       -34.7700   23.8790   10.8020 N.am  1301  HH21301     0.0136
      9  C8       -34.0400   22.8670   10.0500 C.2   1301  HH21301     0.3537
     10  O8       -33.7530   22.9640    8.9020 O.2   1301  HH21301    -0.2506
     11  C9       -33.6580   21.6800   10.7780 C.3   1301  HH21301     0.3093
     12  C10      -34.0120   21.5530   12.2070 C.2   1301  HH21301     0.3860
     13  C11      -31.9120   18.6370    9.7790 C.3   1301  HH21301     0.1941
     14  O4       -30.4860   18.6350   10.1710 O.3   1301  HH21301    -0.3075
     15  P1       -29.7270   17.3690   10.0820 P.3   1301  HH21301     0.2233
     16  O1P      -29.3910   16.7520    8.7210 O.2   1301  HH21301    -0.5169
     17  O2P      -30.4190   16.2520   10.8770 O.3   1301  HH21301    -0.4370
     18  O3P      -28.3750   17.6210   10.8710 O.3   1301  HH21301    -0.2261
     19  P2       -28.2630   18.2790   12.3320 P.3   1301  HH21301     0.5373
     20  O4P      -28.1380   19.7580   12.1130 O.2   1301  HH21301    -0.2221
     21  O5P      -29.4860   18.0440   13.1480 O.3   1301  HH21301    -0.1143
     22  O6P      -27.0590   17.6850   13.0780 O.3   1301  HH21301    -0.1143
@<TRIPOS>BOND
     1     1     2    2
     2     1    11    1
     3     2    13    1
     4     2     3    1
     5     3     4    1
     6     4    12    2
     7     5     6    2
     8     5    12    1
     9     6     8    1
    10     6     7    1
    11     8     9   am
    12     9    10    2
    13     9    11    1
    14    11    12    1
    15    13    14    1
    16    14    15    1
    17    15    16    2
    18    15    18    1
    19    15    17    1
    20    18    19    1
    21    19    20    2
    22    19    22    1
    23    19    21    1
