@<TRIPOS>MOLECULE
4krc_AGS_1_ligand
   43    45     1     0     0
SMALL
NO_CHARGES


@<TRIPOS>ATOM
     1 PG          11.6960    -2.0260    30.4930 P.3          1 AGS402   0.0000
     2 S1G         13.3490    -1.6970    31.7050 S.2          1 AGS402   0.0000
     3 O2G         10.5410    -2.1480    31.4660 O.co2        1 AGS402  -1.0000
     4 O3G         12.0130    -3.2420    29.6360 O.co2        1 AGS402  -1.0000
     5 PB          11.9670    -0.5770    27.9870 P.3          1 AGS402   0.0000
     6 O1B         13.4330    -0.2290    28.0050 O.co2        1 AGS402   0.0000
     7 O2B         11.5710    -1.8140    27.1890 O.co2        1 AGS402  -1.0000
     8 O3B         11.4140    -0.7150    29.5260 O.3          1 AGS402   0.0000
     9 PA           9.6630     1.0590    27.6050 P.3          1 AGS402   0.0000
    10 O1A          8.8980     0.8400    26.3090 O.co2        1 AGS402   0.0000
    11 O2A          9.1540     0.4290    28.8770 O.co2        1 AGS402  -1.0000
    12 O3A         11.2270     0.7220    27.3750 O.3          1 AGS402   0.0000
    13 O5'          9.7270     2.6250    27.9570 O.3          1 AGS402   0.0000
    14 C5'         10.6030     3.1240    28.9600 C.3          1 AGS402   0.0000
    15 C4'          9.8020     4.1840    29.7070 C.3          1 AGS402   0.0000
    16 O4'          9.4260     5.2550    28.8350 O.3          1 AGS402   0.0000
    17 C3'          8.4920     3.6480    30.2430 C.3          1 AGS402   0.0000
    18 O3'          8.6610     3.0960    31.5470 O.3          1 AGS402   0.0000
    19 C2'          7.6090     4.8780    30.2640 C.3          1 AGS402   0.0000
    20 O2'          7.7830     5.6240    31.4680 O.3          1 AGS402   0.0000
    21 C1'          8.0990     5.7170    29.1090 C.3          1 AGS402   0.0000
    22 N9           7.1870     5.4610    27.9620 N.pl3        1 AGS402   0.0000
    23 C8           7.2140     4.3880    27.1340 C.2          1 AGS402   0.0000
    24 N7           6.2350     4.4660    26.1910 N.2          1 AGS402   0.0000
    25 C5           5.5560     5.6150    26.4030 C.ar         1 AGS402   0.0000
    26 C6           4.4030     6.3060    25.7700 C.ar         1 AGS402   0.0000
    27 N6           3.7570     5.7720    24.6940 N.pl3        1 AGS402   0.0000
    28 N1           4.0130     7.4870    26.3170 N.ar         1 AGS402   0.0000
    29 C2           4.6380     8.0210    27.3900 C.ar         1 AGS402   0.0000
    30 N3           5.6910     7.4560    28.0140 N.ar         1 AGS402   0.0000
    31 C4           6.1900     6.2700    27.5700 C.ar         1 AGS402   0.0000
    32 H5'1        11.4167     3.5295    28.5435 H            1 AGS402   0.0000
    33 H5'2        10.8771     2.3902    29.5816 H            1 AGS402   0.0000
    34 H4'         10.3490     4.5450    30.4623 H            1 AGS402   0.0000
    35 H3'          8.1167     2.9611    29.6206 H            1 AGS402   0.0000
    36 H5           7.7835     2.7494    31.8785 H            1 AGS402   0.0000
    37 H2'          6.6492     4.6274    30.1379 H            1 AGS402   0.0000
    38 H7           7.5467     5.0506    32.2525 H            1 AGS402   0.0000
    39 H1'          8.1029     6.6874    29.3507 H            1 AGS402   0.0000
    40 H9           7.8689     3.6358    27.2065 H            1 AGS402   0.0000
    41 H10          2.9833     6.2556    24.2848 H            1 AGS402   0.0000
    42 H11          4.0571     4.8969    24.3143 H            1 AGS402   0.0000
    43 H12          4.2971     8.8919    27.7440 H            1 AGS402   0.0000
@<TRIPOS>BOND
     1    1    2       2
     2    1    3      ar
     3    1    4      ar
     4    1    8       1
     5    5    6      ar
     6    5    7      ar
     7    5    8       1
     8    5   12       1
     9    9   10      ar
    10    9   11      ar
    11    9   12       1
    12    9   13       1
    13   13   14       1
    14   14   15       1
    15   15   16       1
    16   15   17       1
    17   16   21       1
    18   17   18       1
    19   17   19       1
    20   19   20       1
    21   19   21       1
    22   21   22       1
    23   22   23       1
    24   22   31       1
    25   23   24       2
    26   24   25       1
    27   25   26      ar
    28   25   31      ar
    29   26   27       1
    30   26   28      ar
    31   28   29      ar
    32   29   30      ar
    33   30   31      ar
    34   29   43       1
    35   27   42       1
    36   27   41       1
    37   23   40       1
    38   14   32       1
    39   14   33       1
    40   15   34       1
    41   17   35       1
    42   18   36       1
    43   19   37       1
    44   20   38       1
    45   21   39       1
@<TRIPOS>SUBSTRUCTURE
     1 AGS402      1 GROUP             4 A     AGS     0 **** AGS A 402
