@<TRIPOS>MOLECULE
2fdd_385_1_ligand
   89    94     1     0     0
SMALL
NO_CHARGES


@<TRIPOS>ATOM
     1 C1          19.1120    16.4550    -2.6680 C.3          1 385501   0.0000
     2 C2          19.1160    17.8320    -3.3210 C.3          1 385501   0.0000
     3 C3          17.8580    15.7450    -3.2830 C.3          1 385501   0.0000
     4 C4          19.1730    16.7540    -1.1380 C.3          1 385501   0.0000
     5 O5          18.1130    17.8380    -4.3430 O.3          1 385501   0.0000
     6 O6          18.8290    18.8250    -2.3170 O.3          1 385501   0.0000
     7 C7          17.7050    16.4760    -4.6130 C.3          1 385501   0.0000
     8 O8          16.6510    15.8910    -2.5020 O.3          1 385501   0.0000
     9 C9          18.5420    18.1800    -1.0650 C.3          1 385501   0.0000
    10 C10         16.1360    14.9530    -1.6710 C.2          1 385501   0.0000
    11 N11         15.2730    15.3280    -0.7260 N.am         1 385501   0.0000
    12 O12         16.4630    13.7880    -1.7890 O.2          1 385501   0.0000
    13 C13         14.5630    14.5580     0.3010 C.3          1 385501   0.0000
    14 C14         14.9040    15.1850     1.6950 C.3          1 385501   0.0000
    15 C15         13.0500    14.4330    -0.0530 C.3          1 385501   0.0000
    16 C16         16.3190    15.4780     2.0190 C.ar         1 385501   0.0000
    17 C17         12.2780    13.3500     0.7240 C.3          1 385501   0.0000
    18 O18         12.4420    15.6830     0.1640 O.3          1 385501   0.0000
    19 C19         16.7650    16.8210     2.1710 C.ar         1 385501   0.0000
    20 C20         17.2540    14.4010     2.1620 C.ar         1 385501   0.0000
    21 N21         12.7790    12.0370     0.3920 N.3          1 385501   0.0000
    22 C22         18.1430    17.0970     2.4590 C.ar         1 385501   0.0000
    23 C23         18.6080    14.6730     2.4450 C.ar         1 385501   0.0000
    24 S24         13.6070    11.1740     1.6290 S.o2         1 385501   0.0000
    25 C25         11.9630    11.2370    -0.5190 C.3          1 385501   0.0000
    26 C26         19.0540    16.0180     2.5900 C.ar         1 385501   0.0000
    27 C27         12.4000    10.4830     2.6670 C.ar         1 385501   0.0000
    28 O28         14.4820    12.0190     2.3990 O.2          1 385501   0.0000
    29 O29         14.3940    10.1000     1.0750 O.2          1 385501   0.0000
    30 C30         12.1150    11.5210    -2.0320 C.3          1 385501   0.0000
    31 O31         20.3470    16.2800     2.8360 O.3          1 385501   0.0000
    32 C32         11.8290     9.2120     2.3430 C.ar         1 385501   0.0000
    33 C33         11.9540    11.1860     3.8300 C.ar         1 385501   0.0000
    34 C34         11.0020    10.8420    -2.8490 C.3          1 385501   0.0000
    35 C35         13.5260    11.1920    -2.5770 C.3          1 385501   0.0000
    36 C36         21.2310    16.9730     2.0080 C.3          1 385501   0.0000
    37 C37         10.8300     8.6510     3.1650 C.ar         1 385501   0.0000
    38 C38         10.9490    10.6200     4.6560 C.ar         1 385501   0.0000
    39 C39         22.6790    16.6290     2.3140 C.2          1 385501   0.0000
    40 C40         10.3830     9.3510     4.3200 C.ar         1 385501   0.0000
    41 O41         10.1540     7.4850     3.0580 O.3          1 385501   0.0000
    42 N42         23.5190    17.4660     2.9650 N.2          1 385501   0.0000
    43 C43         23.2240    15.4300     1.9360 C.2          1 385501   0.0000
    44 O44          9.4260     8.6180     4.9320 O.3          1 385501   0.0000
    45 C45          9.2510     7.4200     4.1580 C.3          1 385501   0.0000
    46 C46         24.7090    16.9850     3.1170 C.2          1 385501   0.0000
    47 S47         24.8660    15.3960     2.4370 S.3          1 385501   0.0000
    48 C48         25.8380    17.7150     3.8070 C.3          1 385501   0.0000
    49 H1          19.9370    15.9595    -2.9397 H            1 385501   0.0000
    50 H2          20.0124    18.0109    -3.7265 H            1 385501   0.0000
    51 H3          18.0521    14.7769    -3.4412 H            1 385501   0.0000
    52 H4          20.1158    16.7557    -0.8048 H            1 385501   0.0000
    53 H5          18.6361    16.0913    -0.6159 H            1 385501   0.0000
    54 H6          16.7541    16.4488    -4.9213 H            1 385501   0.0000
    55 H7          18.2931    16.0648    -5.3094 H            1 385501   0.0000
    56 H8          18.9462    18.6972    -0.3106 H            1 385501   0.0000
    57 H9          17.5533    18.1126    -0.9310 H            1 385501   0.0000
    58 H10         15.0747    16.3081    -0.7157 H            1 385501   0.0000
    59 H11         14.9447    13.6338     0.2925 H            1 385501   0.0000
    60 H12         14.5680    14.5517     2.3921 H            1 385501   0.0000
    61 H13         14.4030    16.0481     1.7595 H            1 385501   0.0000
    62 H14         12.9788    14.2216    -1.0278 H            1 385501   0.0000
    63 H15         11.3081    13.4023     0.4860 H            1 385501   0.0000
    64 H16         12.3893    13.5064     1.7054 H            1 385501   0.0000
    65 H17         12.1099    15.7331     1.1059 H            1 385501   0.0000
    66 H18         16.1152    17.5752     2.0767 H            1 385501   0.0000
    67 H19         16.9454    13.4552     2.0609 H            1 385501   0.0000
    68 H20         18.4578    18.0401     2.5662 H            1 385501   0.0000
    69 H21         19.2575    13.9192     2.5443 H            1 385501   0.0000
    70 H22         11.0045    11.3897    -0.2783 H            1 385501   0.0000
    71 H23         12.1957    10.2763    -0.3676 H            1 385501   0.0000
    72 H24         11.9899    12.5063    -2.1484 H            1 385501   0.0000
    73 H25         12.1396     8.7193     1.5301 H            1 385501   0.0000
    74 H26         12.3499    12.0749     4.0605 H            1 385501   0.0000
    75 H27         11.1298    11.0453    -3.8197 H            1 385501   0.0000
    76 H28         11.0409     9.8528    -2.7076 H            1 385501   0.0000
    77 H29         10.1119    11.1866    -2.5506 H            1 385501   0.0000
    78 H30         13.5613    11.3957    -3.5554 H            1 385501   0.0000
    79 H31         14.2063    11.7455    -2.0966 H            1 385501   0.0000
    80 H32         13.7219    10.2223    -2.4311 H            1 385501   0.0000
    81 H33         21.0966    17.9550     2.1411 H            1 385501   0.0000
    82 H34         21.0362    16.7358     1.0562 H            1 385501   0.0000
    83 H35         10.6372    11.1077     5.4715 H            1 385501   0.0000
    84 H36         22.7460    14.6981     1.4503 H            1 385501   0.0000
    85 H37          9.4542     6.6180     4.7196 H            1 385501   0.0000
    86 H38          8.3100     7.3635     3.8244 H            1 385501   0.0000
    87 H39         26.6580    17.1426     3.8009 H            1 385501   0.0000
    88 H40         26.0253    18.5709     3.3250 H            1 385501   0.0000
    89 H41         25.5778    17.9145     4.7517 H            1 385501   0.0000
@<TRIPOS>BOND
     1    1    2       1
     2    1    3       1
     3    1    4       1
     4    2    5       1
     5    2    6       1
     6    3    7       1
     7    3    8       1
     8    4    9       1
     9    5    7       1
    10    6    9       1
    11    8   10       1
    12   10   11      am
    13   10   12       2
    14   11   13       1
    15   13   14       1
    16   13   15       1
    17   14   16       1
    18   15   17       1
    19   15   18       1
    20   16   19      ar
    21   16   20      ar
    22   17   21       1
    23   19   22      ar
    24   20   23      ar
    25   21   24       1
    26   21   25       1
    27   22   26      ar
    28   23   26      ar
    29   24   27       1
    30   24   28       2
    31   24   29       2
    32   25   30       1
    33   26   31       1
    34   27   32      ar
    35   27   33      ar
    36   30   34       1
    37   30   35       1
    38   31   36       1
    39   32   37      ar
    40   33   38      ar
    41   36   39       1
    42   37   40      ar
    43   37   41       1
    44   38   40      ar
    45   39   42       1
    46   39   43       2
    47   40   44       1
    48   41   45       1
    49   42   46       2
    50   43   47       1
    51   44   45       1
    52   46   47       1
    53   46   48       1
    54    1   49       1
    55    2   50       1
    56    3   51       1
    57    4   52       1
    58    4   53       1
    59    7   54       1
    60    7   55       1
    61    9   56       1
    62    9   57       1
    63   11   58       1
    64   13   59       1
    65   14   60       1
    66   14   61       1
    67   15   62       1
    68   17   63       1
    69   17   64       1
    70   18   65       1
    71   19   66       1
    72   20   67       1
    73   22   68       1
    74   23   69       1
    75   25   70       1
    76   25   71       1
    77   30   72       1
    78   32   73       1
    79   33   74       1
    80   34   75       1
    81   34   76       1
    82   34   77       1
    83   35   78       1
    84   35   79       1
    85   35   80       1
    86   36   81       1
    87   36   82       1
    88   38   83       1
    89   43   84       1
    90   45   85       1
    91   45   86       1
    92   48   87       1
    93   48   88       1
    94   48   89       1
@<TRIPOS>SUBSTRUCTURE
     1 385501      1 GROUP             4 B     385     0 **** 385 B 501
