@<TRIPOS>MOLECULE
4a8v_2AN_1_ligand
   33    35     1     0     0
SMALL
NO_CHARGES


@<TRIPOS>ATOM
     1 C1           4.4070     4.9370     9.8860 C.ar         1 2AN1160   0.0000
     2 C2           3.5430     6.0340     9.7350 C.ar         1 2AN1160   0.0000
     3 C3           3.8040     7.0320     8.8160 C.ar         1 2AN1160   0.0000
     4 C4           4.9370     6.9340     8.0410 C.ar         1 2AN1160   0.0000
     5 C5           5.8040     5.8570     8.1900 C.ar         1 2AN1160   0.0000
     6 C6           6.9030     5.8440     7.3560 C.ar         1 2AN1160   0.0000
     7 C7           7.8190     4.8100     7.4430 C.ar         1 2AN1160   0.0000
     8 C8           7.6150     3.7820     8.3500 C.ar         1 2AN1160   0.0000
     9 N            4.1910     3.9510    10.8410 N.pl3        1 2AN1160   0.0000
    10 S            6.4470     2.4520    10.2100 S.o2         1 2AN1160   0.0000
    11 C9           6.5060     3.7410     9.2060 C.ar         1 2AN1160   0.0000
    12 C10          5.5690     4.8160     9.1160 C.ar         1 2AN1160   0.0000
    13 C11          2.8960     3.6870    11.2760 C.ar         1 2AN1160   0.0000
    14 C12          2.7600     3.4520    12.6190 C.ar         1 2AN1160   0.0000
    15 C13          1.5120     3.1240    13.1230 C.ar         1 2AN1160   0.0000
    16 C14          0.4050     3.0060    12.2840 C.ar         1 2AN1160   0.0000
    17 C15          0.5520     3.2140    10.9160 C.ar         1 2AN1160   0.0000
    18 C16          1.8020     3.5550    10.4140 C.ar         1 2AN1160   0.0000
    19 O1           7.6640     1.6330     9.9780 O.co2        1 2AN1160   0.0000
    20 O2           5.2600     1.6460    10.0940 O.co2        1 2AN1160   0.0000
    21 O3           6.5650     2.9800    11.7570 O.co2        1 2AN1160  -1.0000
    22 H1           2.7228     6.0938    10.3039 H            1 2AN1160   0.0000
    23 H2           3.1827     7.8092     8.7161 H            1 2AN1160   0.0000
    24 H3           5.1385     7.6430     7.3652 H            1 2AN1160   0.0000
    25 H4           7.0373     6.5788     6.6912 H            1 2AN1160   0.0000
    26 H5           8.6262     4.8047     6.8528 H            1 2AN1160   0.0000
    27 H6           8.2849     3.0410     8.3954 H            1 2AN1160   0.0000
    28 H7           4.9618     3.4342    11.2135 H            1 2AN1160   0.0000
    29 H8           3.5511     3.5164    13.2273 H            1 2AN1160   0.0000
    30 H9           1.4034     2.9693    14.1050 H            1 2AN1160   0.0000
    31 H10         -0.4904     2.7730    12.6634 H            1 2AN1160   0.0000
    32 H11         -0.2317     3.1193    10.3022 H            1 2AN1160   0.0000
    33 H12          1.9201     3.7067     9.4326 H            1 2AN1160   0.0000
@<TRIPOS>BOND
     1    1    2      ar
     2    1    9       1
     3    1   12      ar
     4    2    3      ar
     5    3    4      ar
     6    4    5      ar
     7    5    6      ar
     8    5   12      ar
     9    6    7      ar
    10    7    8      ar
    11    8   11      ar
    12    9   13       1
    13   10   11       1
    14   10   19      ar
    15   10   20      ar
    16   10   21      ar
    17   11   12      ar
    18   13   14      ar
    19   13   18      ar
    20   14   15      ar
    21   15   16      ar
    22   16   17      ar
    23   17   18      ar
    24    2   22       1
    25    3   23       1
    26    4   24       1
    27    6   25       1
    28    7   26       1
    29    8   27       1
    30    9   28       1
    31   14   29       1
    32   15   30       1
    33   16   31       1
    34   17   32       1
    35   18   33       1
@<TRIPOS>SUBSTRUCTURE
     1 2AN1160     1 GROUP             4 A     2AN     0 **** 2AN A1160
