@<TRIPOS>MOLECULE
3fy4_IMD_4_ligand
    9     9     1     0     0
SMALL
NO_CHARGES


@<TRIPOS>ATOM
     1 N1         -29.8430    19.7760    54.1290 N.2          1 IMD901   0.0000
     2 C2         -28.7850    20.1320    53.4260 C.2          1 IMD901   0.0000
     3 N3         -29.1110    21.1660    52.5970 N.pl3        1 IMD901   0.0000
     4 C4         -30.4280    21.4590    52.7990 C.2          1 IMD901   0.0000
     5 C5         -30.9130    20.6180    53.7410 C.2          1 IMD901   0.0000
     6 H1         -27.8814    19.7086    53.4907 H            1 IMD901   0.0000
     7 H2         -30.9467    22.1740    52.3303 H            1 IMD901   0.0000
     8 H3         -31.8479    20.5954    54.0953 H            1 IMD901   0.0000
     9 H4         -28.4955    21.6259    51.9570 H            1 IMD901   0.0000
@<TRIPOS>BOND
     1    1    2       2
     2    1    5       1
     3    2    3       1
     4    3    4       1
     5    4    5       2
     6    5    8       1
     7    2    6       1
     8    4    7       1
     9    3    9       1
@<TRIPOS>SUBSTRUCTURE
     1 IMD901      1 GROUP             4 B     IMD     0 **** IMD B 901
