@<TRIPOS>MOLECULE
2eg2_ATP_1_ligand
   43    45     1     0     0
SMALL
NO_CHARGES


@<TRIPOS>ATOM
     1 PG          13.8660    30.8560     1.4480 P.3          1 ATP501   0.0000
     2 O1G         12.7510    31.5510     2.1290 O.co2        1 ATP501   0.0000
     3 O2G         15.2610    31.0580     2.2270 O.co2        1 ATP501  -1.0000
     4 O3G         14.1080    31.4120    -0.0440 O.co2        1 ATP501  -1.0000
     5 PB          14.8010    28.2160     1.6060 P.3          1 ATP501   0.0000
     6 O1B         14.7620    27.0360     0.7130 O.co2        1 ATP501   0.0000
     7 O2B         16.1970    29.0080     1.4740 O.co2        1 ATP501  -1.0000
     8 O3B         13.6260    29.2710     1.2920 O.3          1 ATP501   0.0000
     9 PA          15.3110    28.6860     4.3270 P.3          1 ATP501   0.0000
    10 O1A         14.3590    29.6140     4.9760 O.co2        1 ATP501   0.0000
    11 O2A         16.5770    29.4380     3.6750 O.co2        1 ATP501  -1.0000
    12 O3A         14.6220    27.8210     3.1570 O.3          1 ATP501   0.0000
    13 O5'         15.9280    27.5920     5.3340 O.3          1 ATP501   0.0000
    14 C5'         15.8790    27.7700     6.7520 C.3          1 ATP501   0.0000
    15 C4'         16.3670    26.4850     7.4220 C.3          1 ATP501   0.0000
    16 O4'         15.5650    25.3540     7.0450 O.3          1 ATP501   0.0000
    17 C3'         17.7390    26.1470     6.8430 C.3          1 ATP501   0.0000
    18 O3'         18.7250    26.9700     7.4740 O.3          1 ATP501   0.0000
    19 C2'         17.8310    24.7170     7.3700 C.3          1 ATP501   0.0000
    20 O2'         18.0530    24.7370     8.7810 O.3          1 ATP501   0.0000
    21 C1'         16.4200    24.1960     7.0790 C.3          1 ATP501   0.0000
    22 N9          16.3720    23.5760     5.7350 N.pl3        1 ATP501   0.0000
    23 C8          16.0490    24.1940     4.6010 C.2          1 ATP501   0.0000
    24 N7          16.0810    23.3220     3.5960 N.2          1 ATP501   0.0000
    25 C5          16.4270    22.1390     4.0940 C.ar         1 ATP501   0.0000
    26 C6          16.6150    20.8770     3.5460 C.ar         1 ATP501   0.0000
    27 N6          16.4440    20.6770     2.2420 N.pl3        1 ATP501   0.0000
    28 N1          16.9710    19.8670     4.3520 N.ar         1 ATP501   0.0000
    29 C2          17.1480    20.0590     5.6470 C.ar         1 ATP501   0.0000
    30 N3          16.9780    21.2450     6.2040 N.ar         1 ATP501   0.0000
    31 C4          16.6170    22.3000     5.4590 C.ar         1 ATP501   0.0000
    32 H5'1        14.9393    27.9617     7.0352 H            1 ATP501   0.0000
    33 H5'2        16.4690    28.5329     7.0164 H            1 ATP501   0.0000
    34 H4'         16.4073    26.5864     8.4160 H            1 ATP501   0.0000
    35 H3'         17.7663    26.1989     5.8447 H            1 ATP501   0.0000
    36 H5          18.7224    26.7975     8.4590 H            1 ATP501   0.0000
    37 H2'         18.5303    24.1872     6.8901 H            1 ATP501   0.0000
    38 H7          18.1127    23.7990     9.1224 H            1 ATP501   0.0000
    39 H1'         16.1231    23.5508     7.7830 H            1 ATP501   0.0000
    40 H9          15.8181    25.1634     4.5172 H            1 ATP501   0.0000
    41 H10         16.5810    19.7657     1.8537 H            1 ATP501   0.0000
    42 H11         16.1785    21.4380     1.6500 H            1 ATP501   0.0000
    43 H12         17.4179    19.2860     6.2211 H            1 ATP501   0.0000
@<TRIPOS>BOND
     1    1    2      ar
     2    1    3      ar
     3    1    4      ar
     4    1    8       1
     5    5    6      ar
     6    5    7      ar
     7    5    8       1
     8    5   12       1
     9    9   10      ar
    10    9   11      ar
    11    9   12       1
    12    9   13       1
    13   13   14       1
    14   14   15       1
    15   15   16       1
    16   15   17       1
    17   16   21       1
    18   17   18       1
    19   17   19       1
    20   19   20       1
    21   19   21       1
    22   21   22       1
    23   22   23       1
    24   22   31       1
    25   23   24       2
    26   24   25       1
    27   25   26      ar
    28   25   31      ar
    29   26   27       1
    30   26   28      ar
    31   28   29      ar
    32   29   30      ar
    33   30   31      ar
    34   29   43       1
    35   27   42       1
    36   27   41       1
    37   23   40       1
    38   14   32       1
    39   14   33       1
    40   15   34       1
    41   17   35       1
    42   18   36       1
    43   19   37       1
    44   20   38       1
    45   21   39       1
@<TRIPOS>SUBSTRUCTURE
     1 ATP501      1 GROUP             4 A     ATP     0 **** ATP A 501
