@<TRIPOS>MOLECULE
4r2l_ATP_1_ligand
   43    45     1     0     0
SMALL
NO_CHARGES


@<TRIPOS>ATOM
     1 PG          28.0860   -31.8770   -12.5950 P.3          1 ATP202   0.0000
     2 O1G         27.9380   -31.0980   -13.8900 O.co2        1 ATP202   0.0000
     3 O2G         29.3520   -31.9950   -11.8200 O.co2        1 ATP202  -1.0000
     4 O3G         26.8410   -31.7630   -11.6890 O.co2        1 ATP202  -1.0000
     5 PB          26.9700   -34.1240   -13.8890 P.3          1 ATP202   0.0000
     6 O1B         25.5940   -33.3690   -13.7710 O.co2        1 ATP202   0.0000
     7 O2B         27.3610   -34.4880   -15.2800 O.co2        1 ATP202  -1.0000
     8 O3B         28.0700   -33.4270   -13.0730 O.3          1 ATP202   0.0000
     9 PA          26.2960   -35.7170   -11.6140 P.3          1 ATP202   0.0000
    10 O1A         27.3840   -36.2470   -10.7620 O.co2        1 ATP202   0.0000
    11 O2A         25.7710   -34.4670   -11.0230 O.co2        1 ATP202  -1.0000
    12 O3A         26.7970   -35.5540   -13.1380 O.3          1 ATP202   0.0000
    13 O5'         25.0830   -36.7050   -11.7980 O.3          1 ATP202   0.0000
    14 C5'         25.1510   -38.1200   -11.7110 C.3          1 ATP202   0.0000
    15 C4'         23.9790   -38.6160   -10.8900 C.3          1 ATP202   0.0000
    16 O4'         24.0200   -38.0420    -9.5690 O.3          1 ATP202   0.0000
    17 C3'         22.6100   -38.2530   -11.3930 C.3          1 ATP202   0.0000
    18 O3'         22.2380   -39.0820   -12.4130 O.3          1 ATP202   0.0000
    19 C2'         21.7790   -38.4950   -10.1660 C.3          1 ATP202   0.0000
    20 O2'         21.5980   -39.8590    -9.8510 O.3          1 ATP202   0.0000
    21 C1'         22.6630   -37.9230    -9.0780 C.3          1 ATP202   0.0000
    22 N9          22.3570   -36.4830    -8.9420 N.pl3        1 ATP202   0.0000
    23 C8          23.0000   -35.4330    -9.4690 C.2          1 ATP202   0.0000
    24 N7          22.4200   -34.2760    -9.0620 N.2          1 ATP202   0.0000
    25 C5          21.4070   -34.6210    -8.2520 C.ar         1 ATP202   0.0000
    26 C6          20.3280   -33.9080    -7.5310 C.ar         1 ATP202   0.0000
    27 N6          20.3100   -32.5780    -7.5710 N.pl3        1 ATP202   0.0000
    28 N1          19.5320   -34.6420    -6.7660 N.ar         1 ATP202   0.0000
    29 C2          19.5450   -36.0120    -6.7320 C.ar         1 ATP202   0.0000
    30 N3          20.4740   -36.7320    -7.4020 N.ar         1 ATP202   0.0000
    31 C4          21.3760   -36.0720    -8.1660 C.ar         1 ATP202   0.0000
    32 H5'1        26.0075   -38.3888   -11.2704 H            1 ATP202   0.0000
    33 H5'2        25.1097   -38.5154   -12.6286 H            1 ATP202   0.0000
    34 H4'         24.0395   -39.6110   -10.8107 H            1 ATP202   0.0000
    35 H3'         22.5702   -37.2940   -11.6735 H            1 ATP202   0.0000
    36 H5          21.2432   -39.1843   -12.4135 H            1 ATP202   0.0000
    37 H2'         20.9043   -38.0129   -10.2167 H            1 ATP202   0.0000
    38 H7          21.1397   -40.3188   -10.6116 H            1 ATP202   0.0000
    39 H1'         22.5413   -38.4083    -8.2121 H            1 ATP202   0.0000
    40 H9          23.7932   -35.4931   -10.0750 H            1 ATP202   0.0000
    41 H10         19.5918   -32.0731    -7.0923 H            1 ATP202   0.0000
    42 H11         21.0147   -32.0835    -8.0798 H            1 ATP202   0.0000
    43 H12         18.8493   -36.4922    -6.1978 H            1 ATP202   0.0000
@<TRIPOS>BOND
     1    1    2      ar
     2    1    3      ar
     3    1    4      ar
     4    1    8       1
     5    5    6      ar
     6    5    7      ar
     7    5    8       1
     8    5   12       1
     9    9   10      ar
    10    9   11      ar
    11    9   12       1
    12    9   13       1
    13   13   14       1
    14   14   15       1
    15   15   16       1
    16   15   17       1
    17   16   21       1
    18   17   18       1
    19   17   19       1
    20   19   20       1
    21   19   21       1
    22   21   22       1
    23   22   23       1
    24   22   31       1
    25   23   24       2
    26   24   25       1
    27   25   26      ar
    28   25   31      ar
    29   26   27       1
    30   26   28      ar
    31   28   29      ar
    32   29   30      ar
    33   30   31      ar
    34   29   43       1
    35   27   42       1
    36   27   41       1
    37   23   40       1
    38   14   32       1
    39   14   33       1
    40   15   34       1
    41   17   35       1
    42   18   36       1
    43   19   37       1
    44   20   38       1
    45   21   39       1
@<TRIPOS>SUBSTRUCTURE
     1 ATP202      1 GROUP             4 A     ATP     0 **** ATP A 202
