@<TRIPOS>MOLECULE
3gsi_THG_1_ligand
   53    55     1     0     0
SMALL
NO_CHARGES


@<TRIPOS>ATOM
     1 N3          48.2030    87.6860    46.0080 N.pl3        1 THG2887   0.0000
     2 C2          47.7820    86.2920    46.6100 C.2          1 THG2887   0.0000
     3 N1          46.9810    85.4030    45.8260 N.2          1 THG2887   0.0000
     4 C8A         46.5520    85.7580    44.5900 C.2          1 THG2887   0.0000
     5 C4A         47.0040    87.1980    43.9430 C.2          1 THG2887   0.0000
     6 C4          47.7970    88.0470    44.7310 C.2          1 THG2887   0.0000
     7 N8          45.6910    84.8680    43.6680 N.pl3        1 THG2887   0.0000
     8 C7          44.9250    85.5970    42.6540 C.3          1 THG2887   0.0000
     9 C6          45.9070    86.3850    41.8780 C.3          1 THG2887   0.0000
    10 N5          46.5100    87.4720    42.6150 N.pl3        1 THG2887   0.0000
    11 C9          46.8280    85.4110    41.0980 C.3          1 THG2887   0.0000
    12 N10         48.1320    85.9120    40.6970 N.pl3        1 THG2887   0.0000
    13 C4'         49.5730    86.0160    40.7850 C.ar         1 THG2887   0.0000
    14 C3'         50.3770    86.0580    39.5760 C.ar         1 THG2887   0.0000
    15 C2'         51.8260    86.0880    39.7500 C.ar         1 THG2887   0.0000
    16 C1'         52.3900    86.0550    41.1180 C.ar         1 THG2887   0.0000
    17 C6'         51.5530    85.9840    42.3390 C.ar         1 THG2887   0.0000
    18 C5'         50.1490    85.9590    42.1750 C.ar         1 THG2887   0.0000
    19 C11         53.9210    86.0410    41.2620 C.2          1 THG2887   0.0000
    20 N           54.6680    85.4260    40.1570 N.am         1 THG2887   0.0000
    21 CA          56.1660    85.4460    40.1760 C.3          1 THG2887   0.0000
    22 C           56.7060    85.0950    38.7780 C.2          1 THG2887   0.0000
    23 OX2         55.6890    84.9370    37.8090 O.co2        1 THG2887   0.0000
    24 OX1         57.8100    85.8770    38.4190 O.co2        1 THG2887  -1.0000
    25 CB          56.6410    84.3490    41.1640 C.3          1 THG2887   0.0000
    26 CG          56.0100    82.9720    40.8080 C.3          1 THG2887   0.0000
    27 CD          56.5630    81.7380    41.5840 C.2          1 THG2887   0.0000
    28 OE1         57.9640    81.6330    41.5480 O.co2        1 THG2887   0.0000
    29 OE2         55.8450    80.5650    41.2730 O.co2        1 THG2887  -1.0000
    30 O11         54.4540    86.4520    42.2450 O.2          1 THG2887   0.0000
    31 O4          48.2570    89.2760    44.2230 O.2          1 THG2887   0.0000
    32 N2          48.1930    85.9150    47.9610 N.pl3        1 THG2887   0.0000
    33 H1          45.6587    83.8724    43.7560 H            1 THG2887   0.0000
    34 H2          44.2619    86.2044    43.0915 H            1 THG2887   0.0000
    35 H3          44.4452    84.9557    42.0553 H            1 THG2887   0.0000
    36 H4          45.3627    86.8349    41.1700 H            1 THG2887   0.0000
    37 H5          46.5828    88.3864    42.2168 H            1 THG2887   0.0000
    38 H6          46.3423    85.1366    40.2680 H            1 THG2887   0.0000
    39 H7          46.9781    84.6095    41.6768 H            1 THG2887   0.0000
    40 H8          47.9108    86.5260    39.9393 H            1 THG2887   0.0000
    41 H3'         49.9580    86.0660    38.6681 H            1 THG2887   0.0000
    42 H2'         52.4304    86.1303    38.9544 H            1 THG2887   0.0000
    43 H6'         51.9675    85.9548    43.2486 H            1 THG2887   0.0000
    44 H5'         49.5466    85.9042    42.9713 H            1 THG2887   0.0000
    45 H13         54.1800    84.9968    39.3970 H            1 THG2887   0.0000
    46 HA          56.4997    86.3436    40.4640 H            1 THG2887   0.0000
    47 HB1         56.3691    84.6039    42.0920 H            1 THG2887   0.0000
    48 HB2         57.6371    84.2749    41.1170 H            1 THG2887   0.0000
    49 HG1         56.1602    82.8110    39.8326 H            1 THG2887   0.0000
    50 HG2         55.0282    83.0308    40.9888 H            1 THG2887   0.0000
    51 H19         47.9224    85.0288    48.3370 H            1 THG2887   0.0000
    52 H20         48.7448    86.5433    48.5094 H            1 THG2887   0.0000
    53 H21         48.7647    88.3128    46.5480 H            1 THG2887   0.0000
@<TRIPOS>BOND
     1    1    2       1
     2    1    6       1
     3    2    3       2
     4    2   32       1
     5    3    4       1
     6    4    5       2
     7    4    7       1
     8    5    6       1
     9    5   10       1
    10    6   31       2
    11    7    8       1
    12    8    9       1
    13    9   10       1
    14    9   11       1
    15   11   12       1
    16   12   13       1
    17   13   14      ar
    18   13   18      ar
    19   14   15      ar
    20   15   16      ar
    21   16   17      ar
    22   16   19       1
    23   17   18      ar
    24   19   20      am
    25   19   30       2
    26   20   21       1
    27   21   22       1
    28   21   25       1
    29   22   23      ar
    30   22   24      ar
    31   25   26       1
    32   26   27       1
    33   27   28      ar
    34   27   29      ar
    35    1   53       1
    36    7   33       1
    37    8   34       1
    38    8   35       1
    39    9   36       1
    40   10   37       1
    41   11   38       1
    42   11   39       1
    43   12   40       1
    44   14   41       1
    45   15   42       1
    46   17   43       1
    47   18   44       1
    48   20   45       1
    49   21   46       1
    50   32   52       1
    51   25   47       1
    52   25   48       1
    53   26   49       1
    54   26   50       1
    55   32   51       1
@<TRIPOS>SUBSTRUCTURE
     1 THG2887     1 GROUP             4 A     THG     0 **** THG A2887
