@<TRIPOS>MOLECULE
3hco_IMD_1_ligand
    9     9     1     0     0
SMALL
NO_CHARGES


@<TRIPOS>ATOM
     1 N1         -35.3110    14.9270    73.6450 N.2          1 IMD424   0.0000
     2 C2         -34.0020    15.3870    73.7400 C.2          1 IMD424   0.0000
     3 N3         -33.1320    14.4990    73.2300 N.pl3        1 IMD424   0.0000
     4 C4         -33.8510    13.4310    72.8140 C.2          1 IMD424   0.0000
     5 C5         -35.1860    13.6900    73.0530 C.2          1 IMD424   0.0000
     6 H1         -33.7413    16.2669    74.1374 H            1 IMD424   0.0000
     7 H2         -33.4796    12.5979    72.4042 H            1 IMD424   0.0000
     8 H3         -35.9432    13.0757    72.8310 H            1 IMD424   0.0000
     9 H4         -32.1397    14.6072    73.1693 H            1 IMD424   0.0000
@<TRIPOS>BOND
     1    1    2       2
     2    1    5       1
     3    2    3       1
     4    3    4       1
     5    4    5       2
     6    5    8       1
     7    2    6       1
     8    4    7       1
     9    3    9       1
@<TRIPOS>SUBSTRUCTURE
     1 IMD424      1 GROUP             4 A     IMD     0 **** IMD A 424
