@<TRIPOS>MOLECULE
3ue4_DB8_1_ligand
   67    70     1     0     0
SMALL
NO_CHARGES


@<TRIPOS>ATOM
     1 CAA         -2.4390    15.8230   -52.6150 C.3          1 DB8601   0.0000
     2 O02         -0.7230    17.7490   -43.8250 O.3          1 DB8601   0.0000
     3 CAC         -0.2760    10.9670   -54.9260 C.3          1 DB8601   0.0000
     4 NAD         -2.8950    14.2390   -44.0700 N.1          1 DB8601   0.0000
     5 CL1         -3.2890    18.8070   -42.4990 Cl           1 DB8601   0.0000
     6 CL2         -5.8900    16.3750   -46.8020 Cl           1 DB8601   0.0000
     7 CAG         -2.5320    13.8910   -45.0810 C.1          1 DB8601   0.0000
     8 CAH         -1.3020    12.1440   -46.5160 C.ar         1 DB8601   0.0000
     9 CAI         -4.4780    17.5620   -44.6880 C.ar         1 DB8601   0.0000
    10 CAJ         -1.8260    16.6460   -45.7600 C.ar         1 DB8601   0.0000
    11 CAK         -0.5380    11.8080   -50.3050 C.ar         1 DB8601   0.0000
    12 CAL         -2.0290    14.4420   -50.2560 C.ar         1 DB8601   0.0000
    13 CAM          0.7430    10.3250   -53.9950 C.3          1 DB8601   0.0000
    14 CAN          0.7360    11.0740   -52.6630 C.3          1 DB8601   0.0000
    15 CAO         -0.7980     7.5090   -59.0390 C.3          1 DB8601   0.0000
    16 CAP         -1.3080    10.3190   -57.2360 C.3          1 DB8601   0.0000
    17 CAQ          0.3100     8.9150   -56.1780 C.3          1 DB8601   0.0000
    18 CAR         -0.7130     9.9490   -58.6050 C.3          1 DB8601   0.0000
    19 CAS          0.9210     8.5590   -57.4940 C.3          1 DB8601   0.0000
    20 NAT         -0.8210    11.6400   -47.7690 N.ar         1 DB8601   0.0000
    21 NAU         -3.0370    15.5280   -47.7040 N.pl3        1 DB8601   0.0000
    22 OAV         -1.7680    14.6040   -52.6880 O.3          1 DB8601   0.0000
    23 OAW         -0.2860    12.0260   -52.7280 O.3          1 DB8601   0.0000
    24 CAX         -1.8860    17.4360   -44.4920 C.ar         1 DB8601   0.0000
    25 CAY         -3.2170    17.8930   -43.9630 C.ar         1 DB8601   0.0000
    26 CAZ         -4.4280    16.7700   -45.9530 C.ar         1 DB8601   0.0000
    27 CBA         -2.0470    13.4380   -46.4190 C.ar         1 DB8601   0.0000
    28 CBB         -3.0980    16.3140   -46.4880 C.ar         1 DB8601   0.0000
    29 CBC         -1.5230    13.8770   -51.5450 C.ar         1 DB8601   0.0000
    30 CBD         -0.7800    12.5830   -51.5560 C.ar         1 DB8601   0.0000
    31 CBE         -2.3230    14.2440   -47.6770 C.ar         1 DB8601   0.0000
    32 CBF         -1.0450    12.3590   -48.9920 C.ar         1 DB8601   0.0000
    33 CBG         -1.7920    13.6770   -48.9890 C.ar         1 DB8601   0.0000
    34 NBH         -0.2430    10.2440   -56.2370 N.4          1 DB8601   1.0000
    35 NBI         -0.0790     8.6600   -58.5140 N.4          1 DB8601   1.0000
    36 C01          0.3580    16.8780   -43.8610 C.3          1 DB8601   0.0000
    37 HAA1        -2.5287    16.2096   -53.5329 H            1 DB8601   0.0000
    38 HAA2        -3.3479    15.6803   -52.2231 H            1 DB8601   0.0000
    39 HAA3        -1.9220    16.4540   -52.0366 H            1 DB8601   0.0000
    40 HAC1        -0.0455    11.9300   -55.0659 H            1 DB8601   0.0000
    41 HAC2        -1.1896    10.8977   -54.5254 H            1 DB8601   0.0000
    42 HAH         -1.1349    11.6159   -45.6834 H            1 DB8601   0.0000
    43 HAI         -5.3578    17.8708   -44.3265 H            1 DB8601   0.0000
    44 HAJ         -0.9450    16.3405   -46.1213 H            1 DB8601   0.0000
    45 HAK         -0.0477    10.9369   -50.3344 H            1 DB8601   0.0000
    46 HAL         -2.5168    15.3148   -50.2397 H            1 DB8601   0.0000
    47 HAM1         1.6533    10.3783   -54.4055 H            1 DB8601   0.0000
    48 HAM2         0.5017     9.3666   -53.8426 H            1 DB8601   0.0000
    49 HAN1         1.6164    11.5260   -52.5197 H            1 DB8601   0.0000
    50 HAN2         0.5627    10.4363   -51.9125 H            1 DB8601   0.0000
    51 HAO1        -0.2462     6.6848   -58.9117 H            1 DB8601   0.0000
    52 HAO2        -1.6657     7.4076   -58.5523 H            1 DB8601   0.0000
    53 HAO3        -0.9763     7.6436   -60.0137 H            1 DB8601   0.0000
    54 HAP1        -2.0384     9.6779   -57.0004 H            1 DB8601   0.0000
    55 HAP2        -1.6771    11.2478   -57.2676 H            1 DB8601   0.0000
    56 HAQ1         1.0116     8.8792   -55.4663 H            1 DB8601   0.0000
    57 HAQ2        -0.4168     8.2628   -55.9627 H            1 DB8601   0.0000
    58 HAR1        -0.0371    10.6358   -58.8724 H            1 DB8601   0.0000
    59 HAR2        -1.4423     9.9153   -59.2884 H            1 DB8601   0.0000
    60 HAS1         1.2711     7.6229   -57.4590 H            1 DB8601   0.0000
    61 HAS2         1.6714     9.1882   -57.6965 H            1 DB8601   0.0000
    62 HAU         -3.4718    15.8527   -48.5440 H            1 DB8601   0.0000
    63 H27          1.1121    17.2605   -43.3272 H            1 DB8601   0.0000
    64 H28          0.0888    15.9964   -43.4734 H            1 DB8601   0.0000
    65 H29          0.6515    16.7500   -44.8083 H            1 DB8601   0.0000
    66 HBH          0.4916    10.7345   -56.7057 H            1 DB8601   0.0000
    67 HBI          0.5456     8.7764   -59.2862 H            1 DB8601   0.0000
@<TRIPOS>BOND
     1    1   22       1
     2    2   24       1
     3    2   36       1
     4    3   13       1
     5    3   34       1
     6    4    7       3
     7    5   25       1
     8    6   26       1
     9    7   27       1
    10    8   20      ar
    11    8   27      ar
    12    9   25      ar
    13    9   26      ar
    14   10   24      ar
    15   10   28      ar
    16   11   30      ar
    17   11   32      ar
    18   12   29      ar
    19   12   33      ar
    20   13   14       1
    21   14   23       1
    22   15   35       1
    23   16   18       1
    24   16   34       1
    25   17   19       1
    26   17   34       1
    27   18   35       1
    28   19   35       1
    29   20   32      ar
    30   21   28       1
    31   21   31       1
    32   22   29       1
    33   23   30       1
    34   24   25      ar
    35   26   28      ar
    36   27   31      ar
    37   29   30      ar
    38   31   33      ar
    39   32   33      ar
    40    1   37       1
    41    1   38       1
    42    1   39       1
    43    3   40       1
    44    3   41       1
    45    8   42       1
    46    9   43       1
    47   10   44       1
    48   11   45       1
    49   12   46       1
    50   13   47       1
    51   13   48       1
    52   14   49       1
    53   14   50       1
    54   15   51       1
    55   15   52       1
    56   15   53       1
    57   16   54       1
    58   16   55       1
    59   17   56       1
    60   17   57       1
    61   18   58       1
    62   18   59       1
    63   19   60       1
    64   19   61       1
    65   21   62       1
    66   36   63       1
    67   36   64       1
    68   36   65       1
    69   34   66       1
    70   35   67       1
@<TRIPOS>SUBSTRUCTURE
     1 DB8601      1 GROUP             4 A     DB8     0 **** DB8 A 601
