@<TRIPOS>MOLECULE
4d9t_0JG_1_ligand
   52    54     1     0     0
SMALL
NO_CHARGES


@<TRIPOS>ATOM
     1 N01        -33.8570    14.9370   -19.9370 N.pl3        1 0JG900   0.0000
     2 C02        -33.4580    14.6180   -21.2810 C.ar         1 0JG900   0.0000
     3 C03        -32.3520    13.7060   -21.5480 C.ar         1 0JG900   0.0000
     4 C04        -32.0130    13.4240   -22.9310 C.ar         1 0JG900   0.0000
     5 N05        -30.8810    12.4850   -22.9700 N.pl3        1 0JG900   0.0000
     6 C06        -30.3020    12.0080   -24.2500 C.3          1 0JG900   0.0000
     7 C07        -29.1300    12.7390   -24.8650 C.3          1 0JG900   0.0000
     8 C08        -28.3570    11.9560   -25.8990 C.3          1 0JG900   0.0000
     9 O09        -28.9640    11.7470   -27.1260 O.3          1 0JG900   0.0000
    10 C10        -30.4530    12.1400   -21.5560 C.2          1 0JG900   0.0000
    11 C11        -29.5340    11.2120   -20.7870 C.3          1 0JG900   0.0000
    12 C12        -28.2200    11.0780   -21.4250 C.3          1 0JG900   0.0000
    13 C13        -27.5220     9.9770   -20.6670 C.2          1 0JG900   0.0000
    14 O14        -27.5820     8.7620   -21.0710 O.3          1 0JG900   0.0000
    15 C15        -26.9340     7.7420   -20.3750 C.3          1 0JG900   0.0000
    16 O16        -26.8760    10.2550   -19.6240 O.2          1 0JG900   0.0000
    17 C17        -27.5050    12.3350   -21.4490 C.1          1 0JG900   0.0000
    18 N18        -26.9620    13.3000   -21.4320 N.1          1 0JG900   0.0000
    19 C19        -31.3680    12.9470   -20.7160 C.2          1 0JG900   0.0000
    20 C20        -31.2920    12.8420   -19.2250 C.ar         1 0JG900   0.0000
    21 C21        -32.2980    12.0590   -18.5080 C.ar         1 0JG900   0.0000
    22 C22        -32.1980    11.9300   -17.0610 C.ar         1 0JG900   0.0000
    23 C23        -31.1420    12.5330   -16.3700 C.ar         1 0JG900   0.0000
    24 C24        -31.0730    12.4000   -14.9190 C.3          1 0JG900   0.0000
    25 C25        -30.0990    13.3210   -17.0990 C.ar         1 0JG900   0.0000
    26 C26        -30.1990    13.4490   -18.5140 C.ar         1 0JG900   0.0000
    27 N27        -32.7320    14.0090   -23.9600 N.ar         1 0JG900   0.0000
    28 C28        -33.7970    14.8830   -23.6690 C.ar         1 0JG900   0.0000
    29 N29        -34.1480    15.1790   -22.3630 N.ar         1 0JG900   0.0000
    30 H1         -34.6185    15.5651   -19.7773 H            1 0JG900   0.0000
    31 H2         -33.3730    14.5307   -19.1620 H            1 0JG900   0.0000
    32 H3         -31.0396    12.0244   -24.9250 H            1 0JG900   0.0000
    33 H4         -30.0079    11.0640   -24.1005 H            1 0JG900   0.0000
    34 H5         -28.4995    12.9874   -24.1296 H            1 0JG900   0.0000
    35 H6         -29.4772    13.5692   -25.3011 H            1 0JG900   0.0000
    36 H7         -28.1564    11.0582   -25.5070 H            1 0JG900   0.0000
    37 H8         -27.5011    12.4450   -26.0673 H            1 0JG900   0.0000
    38 H9         -29.8169    11.2418   -26.9942 H            1 0JG900   0.0000
    39 H10        -29.9597    10.3087   -20.7340 H            1 0JG900   0.0000
    40 H11        -29.4081    11.5758   -19.8641 H            1 0JG900   0.0000
    41 H12        -28.3565    10.7745   -22.3680 H            1 0JG900   0.0000
    42 H13        -27.0933     6.8697   -20.8373 H            1 0JG900   0.0000
    43 H14        -25.9522     7.9296   -20.3462 H            1 0JG900   0.0000
    44 H15        -27.2919     7.6953   -19.4424 H            1 0JG900   0.0000
    45 H16        -33.0451    11.6178   -19.0052 H            1 0JG900   0.0000
    46 H17        -32.8875    11.4079   -16.5590 H            1 0JG900   0.0000
    47 H18        -30.2667    12.8833   -14.5779 H            1 0JG900   0.0000
    48 H19        -31.8958    12.7934   -14.5087 H            1 0JG900   0.0000
    49 H20        -31.0092    11.4322   -14.6756 H            1 0JG900   0.0000
    50 H21        -29.3452    13.7501   -16.6013 H            1 0JG900   0.0000
    51 H22        -29.5047    13.9643   -19.0164 H            1 0JG900   0.0000
    52 H23        -34.3099    15.2980   -24.4205 H            1 0JG900   0.0000
@<TRIPOS>BOND
     1    1    2       1
     2    2    3      ar
     3    2   29      ar
     4    3    4      ar
     5    3   19       1
     6    4    5       1
     7    4   27      ar
     8    5    6       1
     9    5   10       1
    10    6    7       1
    11    7    8       1
    12    8    9       1
    13   10   11       1
    14   10   19       2
    15   11   12       1
    16   12   13       1
    17   12   17       1
    18   13   14       1
    19   13   16       2
    20   14   15       1
    21   17   18       3
    22   19   20       1
    23   20   21      ar
    24   20   26      ar
    25   21   22      ar
    26   22   23      ar
    27   23   24       1
    28   23   25      ar
    29   25   26      ar
    30   27   28      ar
    31   28   29      ar
    32    1   30       1
    33    1   31       1
    34    6   32       1
    35    6   33       1
    36    7   34       1
    37    7   35       1
    38    8   36       1
    39    8   37       1
    40    9   38       1
    41   11   39       1
    42   11   40       1
    43   12   41       1
    44   15   42       1
    45   15   43       1
    46   15   44       1
    47   21   45       1
    48   22   46       1
    49   24   47       1
    50   24   48       1
    51   24   49       1
    52   25   50       1
    53   26   51       1
    54   28   52       1
@<TRIPOS>SUBSTRUCTURE
     1 0JG900      1 GROUP             4 A     0JG     0 **** 0JG A 900
