@<TRIPOS>MOLECULE
3f5m_ATP_1_ligand
   43    45     1     0     0
SMALL
NO_CHARGES


@<TRIPOS>ATOM
     1 PG           7.4140   -17.1810    14.2360 P.3          1 ATP1001   0.0000
     2 O1G          5.9640   -17.5950    14.1910 O.co2        1 ATP1001   0.0000
     3 O2G          8.2250   -17.9370    15.2790 O.co2        1 ATP1001  -1.0000
     4 O3G          7.6250   -15.6860    14.2140 O.co2        1 ATP1001  -1.0000
     5 PB           7.4400   -18.9300    11.9750 P.3          1 ATP1001   0.0000
     6 O1B          6.6060   -19.8420    12.8320 O.co2        1 ATP1001   0.0000
     7 O2B          8.5220   -19.5680    11.1530 O.co2        1 ATP1001  -1.0000
     8 O3B          8.0830   -17.7470    12.8670 O.3          1 ATP1001   0.0000
     9 PA           5.0410   -18.4590    10.5540 P.3          1 ATP1001   0.0000
    10 O1A          4.3670   -17.1480    10.2670 O.co2        1 ATP1001   0.0000
    11 O2A          4.3700   -19.4270    11.4820 O.co2        1 ATP1001  -1.0000
    12 O3A          6.5270   -18.0600    11.0100 O.3          1 ATP1001   0.0000
    13 O5'          5.4140   -19.2340     9.1970 O.3          1 ATP1001   0.0000
    14 C5'          6.1560   -18.5830     8.1680 C.3          1 ATP1001   0.0000
    15 C4'          5.6370   -19.0160     6.8000 C.3          1 ATP1001   0.0000
    16 O4'          5.6500   -20.4480     6.6120 O.3          1 ATP1001   0.0000
    17 C3'          4.2030   -18.5490     6.6710 C.3          1 ATP1001   0.0000
    18 O3'          4.1020   -17.8710     5.4160 O.3          1 ATP1001   0.0000
    19 C2'          3.3810   -19.8330     6.7380 C.3          1 ATP1001   0.0000
    20 O2'          2.1800   -19.7810     5.9550 O.3          1 ATP1001   0.0000
    21 C1'          4.3410   -20.9270     6.2720 C.3          1 ATP1001   0.0000
    22 N9           3.9840   -22.2390     6.8940 N.pl3        1 ATP1001   0.0000
    23 C8           3.7190   -22.4430     8.1990 C.2          1 ATP1001   0.0000
    24 N7           3.4070   -23.7410     8.4550 N.2          1 ATP1001   0.0000
    25 C5           3.4490   -24.3980     7.2800 C.ar         1 ATP1001   0.0000
    26 C6           3.2150   -25.7930     6.8410 C.ar         1 ATP1001   0.0000
    27 N6           2.8730   -26.7660     7.7250 N.pl3        1 ATP1001   0.0000
    28 N1           3.3530   -26.0590     5.5290 N.ar         1 ATP1001   0.0000
    29 C2           3.6870   -25.1070     4.6440 C.ar         1 ATP1001   0.0000
    30 N3           3.9180   -23.8270     4.9730 N.ar         1 ATP1001   0.0000
    31 C4           3.8140   -23.4100     6.2560 C.ar         1 ATP1001   0.0000
    32 H5'1         7.1218   -18.8291     8.2493 H            1 ATP1001   0.0000
    33 H5'2         6.0553   -17.5926     8.2625 H            1 ATP1001   0.0000
    34 H4'          6.1894   -18.5850     6.0865 H            1 ATP1001   0.0000
    35 H3'          3.9623   -17.9361     7.4236 H            1 ATP1001   0.0000
    36 H5           3.1658   -17.5436     5.2884 H            1 ATP1001   0.0000
    37 H2'          3.1350   -20.0070     7.6915 H            1 ATP1001   0.0000
    38 H7           1.6886   -20.6478     6.0404 H            1 ATP1001   0.0000
    39 H1'          4.2760   -21.0122     5.2778 H            1 ATP1001   0.0000
    40 H9           3.7483   -21.7260     8.8954 H            1 ATP1001   0.0000
    41 H10          2.7200   -27.7010     7.4050 H            1 ATP1001   0.0000
    42 H11          2.7742   -26.5473     8.6958 H            1 ATP1001   0.0000
    43 H12          3.7686   -25.3672     3.6819 H            1 ATP1001   0.0000
@<TRIPOS>BOND
     1    1    2      ar
     2    1    3      ar
     3    1    4      ar
     4    1    8       1
     5    5    6      ar
     6    5    7      ar
     7    5    8       1
     8    5   12       1
     9    9   10      ar
    10    9   11      ar
    11    9   12       1
    12    9   13       1
    13   13   14       1
    14   14   15       1
    15   15   16       1
    16   15   17       1
    17   16   21       1
    18   17   18       1
    19   17   19       1
    20   19   20       1
    21   19   21       1
    22   21   22       1
    23   22   23       1
    24   22   31       1
    25   23   24       2
    26   24   25       1
    27   25   26      ar
    28   25   31      ar
    29   26   27       1
    30   26   28      ar
    31   28   29      ar
    32   29   30      ar
    33   30   31      ar
    34   29   43       1
    35   27   42       1
    36   27   41       1
    37   23   40       1
    38   14   32       1
    39   14   33       1
    40   15   34       1
    41   17   35       1
    42   18   36       1
    43   19   37       1
    44   20   38       1
    45   21   39       1
@<TRIPOS>SUBSTRUCTURE
     1 ATP1001     1 GROUP             4 A     ATP     0 **** ATP A1001
