@<TRIPOS>MOLECULE
1z2i_NAD_4_ligand
   70    74     1     0     0
SMALL
NO_CHARGES


@<TRIPOS>ATOM
     1 PA           3.8090    37.4580     7.0720 P.3          1 NAD703   0.0000
     2 O1A          3.2470    36.9580     5.7970 O.co2        1 NAD703   0.0000
     3 O2A          5.2880    37.5180     7.1990 O.co2        1 NAD703  -1.0000
     4 O5B          3.2550    36.5930     8.2990 O.3          1 NAD703   0.0000
     5 C5B          1.8910    36.6560     8.6860 C.3          1 NAD703   0.0000
     6 C4B          1.6770    35.4200     9.4910 C.3          1 NAD703   0.0000
     7 O4B          2.1040    34.0790     9.2580 O.3          1 NAD703   0.0000
     8 C3B          2.2020    35.9010    10.8310 C.3          1 NAD703   0.0000
     9 O3B          1.1820    35.8470    11.8360 O.3          1 NAD703   0.0000
    10 C2B          3.3540    34.9370    11.1030 C.3          1 NAD703   0.0000
    11 O2B          3.5210    34.7720    12.5240 O.3          1 NAD703   0.0000
    12 C1B          2.8820    33.6520    10.4130 C.3          1 NAD703   0.0000
    13 N9A          4.0040    32.7810     9.9510 N.pl3        1 NAD703   0.0000
    14 C8A          5.0310    33.1500     9.1870 C.2          1 NAD703   0.0000
    15 N7A          5.8440    32.0980     8.9800 N.2          1 NAD703   0.0000
    16 C5A          5.3380    31.0680     9.6280 C.ar         1 NAD703   0.0000
    17 C6A          5.7250    29.7120     9.7980 C.ar         1 NAD703   0.0000
    18 N6A          6.8300    29.2540     9.2210 N.pl3        1 NAD703   0.0000
    19 N1A          4.9460    28.8990    10.5460 N.ar         1 NAD703   0.0000
    20 C2A          3.8280    29.3410    11.1320 C.ar         1 NAD703   0.0000
    21 N3A          3.4350    30.6140    10.9970 N.ar         1 NAD703   0.0000
    22 C4A          4.1590    31.4910    10.2620 C.ar         1 NAD703   0.0000
    23 O3           3.2260    38.9390     7.3610 O.3          1 NAD703   0.0000
    24 PN           2.4980    39.8460     6.2410 P.3          1 NAD703   0.0000
    25 O1N          1.2460    39.2430     5.7700 O.co2        1 NAD703   0.0000
    26 O2N          3.5020    40.1220     5.2010 O.co2        1 NAD703  -1.0000
    27 O5D          2.1540    41.2070     7.0250 O.3          1 NAD703   0.0000
    28 C5D          3.2280    41.9740     7.5880 C.3          1 NAD703   0.0000
    29 C4D          2.7290    43.2520     8.2720 C.3          1 NAD703   0.0000
    30 O4D          2.1010    44.1120     7.2990 O.3          1 NAD703   0.0000
    31 C3D          1.6830    42.9880     9.3510 C.3          1 NAD703   0.0000
    32 O3D          2.1430    43.4580    10.6320 O.3          1 NAD703   0.0000
    33 C2D          0.4730    43.7560     8.8570 C.3          1 NAD703   0.0000
    34 O2D         -0.3250    44.2730     9.9250 O.3          1 NAD703   0.0000
    35 C1D          1.1100    44.8470     8.0330 C.3          1 NAD703   0.0000
    36 N1N          0.1540    45.4920     7.1320 N.ar         1 NAD703   1.0000
    37 C2N         -0.4320    46.7260     7.4910 C.ar         1 NAD703   0.0000
    38 C3N         -1.3460    47.3550     6.6330 C.ar         1 NAD703   0.0000
    39 C7N         -1.9980    48.6950     6.9970 C.2          1 NAD703   0.0000
    40 O7N         -2.8000    49.2480     6.2530 O.2          1 NAD703   0.0000
    41 N7N         -1.6290    49.2170     8.1850 N.am         1 NAD703   0.0000
    42 C4N         -1.6630    46.7200     5.4150 C.ar         1 NAD703   0.0000
    43 C5N         -1.0860    45.4960     5.0560 C.ar         1 NAD703   0.0000
    44 C6N         -0.1820    44.8730     5.9000 C.ar         1 NAD703   0.0000
    45 H5B1         1.2952    36.6629     7.8829 H            1 NAD703   0.0000
    46 H5B2         1.7168    37.4720     9.2372 H            1 NAD703   0.0000
    47 H4B          0.6860    35.3580     9.6096 H            1 NAD703   0.0000
    48 H3B          2.5500    36.8347    10.7468 H            1 NAD703   0.0000
    49 H5           0.8637    34.9045    11.9376 H            1 NAD703   0.0000
    50 H2B          4.1990    35.2711    10.6854 H            1 NAD703   0.0000
    51 H7           4.1628    35.4583    12.8661 H            1 NAD703   0.0000
    52 H1B          2.2953    33.1357    11.0368 H            1 NAD703   0.0000
    53 H8A          5.1758    34.0698     8.8224 H            1 NAD703   0.0000
    54 H6A1         7.0988    28.2986     9.3433 H            1 NAD703   0.0000
    55 H6A2         7.3933    29.8645     8.6642 H            1 NAD703   0.0000
    56 H2A          3.2770    28.7111    11.6794 H            1 NAD703   0.0000
    57 H5D1         3.8616    42.2263     6.8567 H            1 NAD703   0.0000
    58 H5D2         3.7054    41.4123     8.2637 H            1 NAD703   0.0000
    59 H4D          3.5066    43.7309     8.6794 H            1 NAD703   0.0000
    60 H3D          1.4752    42.0109     9.3972 H            1 NAD703   0.0000
    61 H17          1.4446    43.2761    11.3242 H            1 NAD703   0.0000
    62 H2D         -0.0848    43.1693     8.2700 H            1 NAD703   0.0000
    63 H19         -0.6521    43.5175    10.4926 H            1 NAD703   0.0000
    64 H1D          1.5447    45.5250     8.6258 H            1 NAD703   0.0000
    65 H2N         -0.1936    47.1541     8.3627 H            1 NAD703   0.0000
    66 H7N1        -2.0131    50.0888     8.4891 H            1 NAD703   0.0000
    67 H7N2        -0.9713    48.7322     8.7616 H            1 NAD703   0.0000
    68 H4N         -2.3150    47.1538     4.7931 H            1 NAD703   0.0000
    69 H5N         -1.3281    45.0690     4.1848 H            1 NAD703   0.0000
    70 H6N          0.2289    43.9979     5.6445 H            1 NAD703   0.0000
@<TRIPOS>BOND
     1    1    2      ar
     2    1    3      ar
     3    1    4       1
     4    1   23       1
     5    4    5       1
     6    5    6       1
     7    6    7       1
     8    6    8       1
     9    7   12       1
    10    8    9       1
    11    8   10       1
    12   10   11       1
    13   10   12       1
    14   12   13       1
    15   13   14       1
    16   13   22       1
    17   14   15       2
    18   15   16       1
    19   16   17      ar
    20   16   22      ar
    21   17   18       1
    22   17   19      ar
    23   19   20      ar
    24   20   21      ar
    25   21   22      ar
    26   23   24       1
    27   24   25      ar
    28   24   26      ar
    29   24   27       1
    30   27   28       1
    31   28   29       1
    32   29   30       1
    33   29   31       1
    34   30   35       1
    35   31   32       1
    36   31   33       1
    37   33   34       1
    38   33   35       1
    39   35   36       1
    40   36   37      ar
    41   36   44      ar
    42   37   38      ar
    43   38   39       1
    44   38   42      ar
    45   39   40       2
    46   39   41      am
    47   42   43      ar
    48   43   44      ar
    49   44   70       1
    50    5   45       1
    51    5   46       1
    52    6   47       1
    53    8   48       1
    54    9   49       1
    55   10   50       1
    56   11   51       1
    57   12   52       1
    58   14   53       1
    59   18   54       1
    60   18   55       1
    61   20   56       1
    62   43   69       1
    63   28   57       1
    64   28   58       1
    65   29   59       1
    66   31   60       1
    67   32   61       1
    68   33   62       1
    69   34   63       1
    70   35   64       1
    71   37   65       1
    72   41   66       1
    73   41   67       1
    74   42   68       1
@<TRIPOS>SUBSTRUCTURE
     1 NAD703      1 GROUP             4 D     NAD     0 **** NAD D 703
