@<TRIPOS>MOLECULE
2os3_BB2_1_ligand
   59    59     1     0     0
SMALL
NO_CHARGES


@<TRIPOS>ATOM
     1 C5         -21.9070   -84.6250    52.6020 C.3          1 BB2400   0.0000
     2 C3         -20.9500   -83.4500    52.3440 C.2          1 BB2400   0.0000
     3 O4         -19.8390   -83.7400    51.8470 O.2          1 BB2400   0.0000
     4 N1         -21.3200   -82.2110    52.6430 N.am         1 BB2400   0.0000
     5 O2         -20.6230   -81.2150    52.4760 O.3          1 BB2400  -1.0000
     6 C6         -21.6130   -85.2400    54.0320 C.3          1 BB2400   0.0000
     7 C12        -22.1240   -86.6870    54.2400 C.2          1 BB2400   0.0000
     8 O13        -23.2750   -87.0340    53.9880 O.2          1 BB2400   0.0000
     9 C7         -22.3570   -84.3070    55.0650 C.3          1 BB2400   0.0000
    10 C8         -22.1230   -84.8070    56.5040 C.3          1 BB2400   0.0000
    11 C9         -22.8250   -83.9490    57.5390 C.3          1 BB2400   0.0000
    12 C10        -22.2590   -84.1600    58.9440 C.3          1 BB2400   0.0000
    13 C11        -22.5600   -85.5040    59.5270 C.3          1 BB2400   0.0000
    14 N14        -21.2190   -87.5180    54.7230 N.am         1 BB2400   0.0000
    15 C15        -21.4310   -88.9200    55.0770 C.3          1 BB2400   0.0000
    16 C16        -20.3910   -89.8540    54.4020 C.3          1 BB2400   0.0000
    17 C18        -20.3210   -89.6190    52.9050 C.3          1 BB2400   0.0000
    18 C17        -20.7760   -91.3110    54.6950 C.3          1 BB2400   0.0000
    19 C19        -21.3470   -89.0000    56.6200 C.2          1 BB2400   0.0000
    20 O20        -20.3530   -88.5450    57.1900 O.2          1 BB2400   0.0000
    21 N21        -22.3610   -89.5670    57.2920 N.am         1 BB2400   0.0000
    22 C22        -22.3600   -89.6890    58.7590 C.3          1 BB2400   0.0000
    23 C23        -23.6060   -90.1410    56.6800 C.3          1 BB2400   0.0000
    24 C24        -24.3900   -90.6430    57.8740 C.3          1 BB2400   0.0000
    25 C25        -23.8390   -89.9230    59.0750 C.3          1 BB2400   0.0000
    26 C26        -21.5040   -90.8490    59.2900 C.2          1 BB2400   0.0000
    27 O27        -20.9520   -90.6980    60.4190 O.2          1 BB2400   0.0000
    28 H1         -21.7699   -85.3265    51.9027 H            1 BB2400   0.0000
    29 H2         -22.8519   -84.2995    52.5668 H            1 BB2400   0.0000
    30 H3         -22.2318   -82.0798    53.0321 H            1 BB2400   0.0000
    31 H4         -20.6292   -85.2090    54.2085 H            1 BB2400   0.0000
    32 H5         -23.3376   -84.3140    54.8689 H            1 BB2400   0.0000
    33 H6         -22.0065   -83.3744    54.9789 H            1 BB2400   0.0000
    34 H7         -21.1408   -84.7961    56.6914 H            1 BB2400   0.0000
    35 H8         -22.4661   -85.7434    56.5778 H            1 BB2400   0.0000
    36 H9         -23.7973   -84.1825    57.5450 H            1 BB2400   0.0000
    37 H10        -22.7147   -82.9872    57.2884 H            1 BB2400   0.0000
    38 H11        -22.6460   -83.4622    59.5467 H            1 BB2400   0.0000
    39 H12        -21.2658   -84.0508    58.9023 H            1 BB2400   0.0000
    40 H13        -22.1603   -85.5678    60.4414 H            1 BB2400   0.0000
    41 H14        -23.5506   -85.6271    59.5869 H            1 BB2400   0.0000
    42 H15        -22.1704   -86.2157    58.9425 H            1 BB2400   0.0000
    43 H16        -20.2984   -87.1524    54.8600 H            1 BB2400   0.0000
    44 H17        -22.3484   -89.1928    54.7873 H            1 BB2400   0.0000
    45 H18        -19.4910   -89.6731    54.7985 H            1 BB2400   0.0000
    46 H19        -19.6438   -90.2347    52.5022 H            1 BB2400   0.0000
    47 H20        -21.2168   -89.7964    52.4975 H            1 BB2400   0.0000
    48 H21        -20.0563   -88.6710    52.7284 H            1 BB2400   0.0000
    49 H22        -20.1130   -91.9239    54.2651 H            1 BB2400   0.0000
    50 H23        -20.7783   -91.4629    55.6834 H            1 BB2400   0.0000
    51 H24        -21.6875   -91.4953    54.3274 H            1 BB2400   0.0000
    52 H25        -22.0577   -88.8291    59.1702 H            1 BB2400   0.0000
    53 H26        -23.3846   -90.8913    56.0571 H            1 BB2400   0.0000
    54 H27        -24.1181   -89.4381    56.1864 H            1 BB2400   0.0000
    55 H28        -24.2695   -91.6304    57.9769 H            1 BB2400   0.0000
    56 H29        -25.3618   -90.4357    57.7619 H            1 BB2400   0.0000
    57 H30        -24.3112   -89.0517    59.2086 H            1 BB2400   0.0000
    58 H31        -23.9375   -90.4849    59.8964 H            1 BB2400   0.0000
    59 H32        -21.3874   -91.6913    58.7637 H            1 BB2400   0.0000
@<TRIPOS>BOND
     1    1    2       1
     2    1    6       1
     3    2    3       2
     4    2    4      am
     5    4    5       1
     6    6    7       1
     7    6    9       1
     8    7    8       2
     9    7   14      am
    10    9   10       1
    11   10   11       1
    12   11   12       1
    13   12   13       1
    14   14   15       1
    15   15   16       1
    16   15   19       1
    17   16   17       1
    18   16   18       1
    19   19   20       2
    20   19   21      am
    21   21   22       1
    22   21   23       1
    23   22   25       1
    24   22   26       1
    25   23   24       1
    26   24   25       1
    27   26   27       2
    28    1   28       1
    29    1   29       1
    30    4   30       1
    31   26   59       1
    32    6   31       1
    33    9   32       1
    34    9   33       1
    35   10   34       1
    36   10   35       1
    37   11   36       1
    38   11   37       1
    39   12   38       1
    40   12   39       1
    41   13   40       1
    42   13   41       1
    43   13   42       1
    44   14   43       1
    45   15   44       1
    46   16   45       1
    47   17   46       1
    48   17   47       1
    49   17   48       1
    50   18   49       1
    51   18   50       1
    52   18   51       1
    53   22   52       1
    54   23   53       1
    55   23   54       1
    56   24   55       1
    57   24   56       1
    58   25   57       1
    59   25   58       1
@<TRIPOS>SUBSTRUCTURE
     1 BB2400      1 GROUP             4 A     BB2     0 **** BB2 A 400
