@<TRIPOS>MOLECULE
4riy_ADP_4_ligand
   39    41     1     0     0
SMALL
NO_CHARGES


@<TRIPOS>ATOM
     1 PB          23.8240   -21.0900   -43.8560 P.3          1 ADP1001   0.0000
     2 O1B         23.5130   -19.9990   -44.8510 O.co2        1 ADP1001   0.0000
     3 O2B         22.6110   -21.8480   -43.3700 O.co2        1 ADP1001  -1.0000
     4 O3B         24.9920   -21.9780   -44.2100 O.co2        1 ADP1001  -1.0000
     5 PA          24.4010   -20.9800   -41.1250 P.3          1 ADP1001   0.0000
     6 O1A         25.0140   -20.0350   -40.1180 O.co2        1 ADP1001   0.0000
     7 O2A         23.0800   -21.6480   -40.8440 O.co2        1 ADP1001  -1.0000
     8 O3A         24.3700   -20.2850   -42.5740 O.3          1 ADP1001   0.0000
     9 O5'         25.4410   -22.1770   -41.3740 O.3          1 ADP1001   0.0000
    10 C5'         25.5860   -23.0850   -40.2950 C.3          1 ADP1001   0.0000
    11 C4'         26.1220   -24.4420   -40.7110 C.3          1 ADP1001   0.0000
    12 O4'         27.5410   -24.3930   -40.9050 O.3          1 ADP1001   0.0000
    13 C3'         25.8490   -25.3810   -39.5540 C.3          1 ADP1001   0.0000
    14 O3'         24.8280   -26.3220   -39.9030 O.3          1 ADP1001   0.0000
    15 C2'         27.1750   -26.0460   -39.2590 C.3          1 ADP1001   0.0000
    16 O2'         27.1900   -27.3470   -39.8550 O.3          1 ADP1001   0.0000
    17 C1'         28.2220   -25.1470   -39.9000 C.3          1 ADP1001   0.0000
    18 N9          28.7050   -24.1670   -38.8890 N.pl3        1 ADP1001   0.0000
    19 C8          28.5190   -22.8330   -38.9510 C.2          1 ADP1001   0.0000
    20 N7          29.0630   -22.1890   -37.8910 N.2          1 ADP1001   0.0000
    21 C5          29.6230   -23.1300   -37.1130 C.ar         1 ADP1001   0.0000
    22 C6          30.3680   -23.1330   -35.8350 C.ar         1 ADP1001   0.0000
    23 N6          30.6190   -21.9780   -35.1710 N.pl3        1 ADP1001   0.0000
    24 N1          30.7830   -24.3260   -35.3560 N.ar         1 ADP1001   0.0000
    25 C2          30.5320   -25.4780   -36.0070 C.ar         1 ADP1001   0.0000
    26 N3          29.8610   -25.5500   -37.1720 N.ar         1 ADP1001   0.0000
    27 C4          29.3890   -24.4290   -37.7700 C.ar         1 ADP1001   0.0000
    28 H5'1        24.6906   -23.2157   -39.8693 H            1 ADP1001   0.0000
    29 H5'2        26.2167   -22.6866   -39.6291 H            1 ADP1001   0.0000
    30 H4'         25.6640   -24.7624   -41.5402 H            1 ADP1001   0.0000
    31 H3'         25.5567   -24.8521   -38.7572 H            1 ADP1001   0.0000
    32 H5          24.0559   -26.2243   -39.2750 H            1 ADP1001   0.0000
    33 H2'         27.3238   -26.1101   -38.2722 H            1 ADP1001   0.0000
    34 H7          26.3220   -27.5085   -40.3246 H            1 ADP1001   0.0000
    35 H1'         28.9759   -25.6783   -40.2866 H            1 ADP1001   0.0000
    36 H9          28.0348   -22.3719   -39.6946 H            1 ADP1001   0.0000
    37 H10         31.1240   -21.9969   -34.3081 H            1 ADP1001   0.0000
    38 H11         30.2991   -21.1071   -35.5441 H            1 ADP1001   0.0000
    39 H12         30.8634   -26.3298   -35.6013 H            1 ADP1001   0.0000
@<TRIPOS>BOND
     1    1    2      ar
     2    1    3      ar
     3    1    4      ar
     4    1    8       1
     5    5    6      ar
     6    5    7      ar
     7    5    8       1
     8    5    9       1
     9    9   10       1
    10   10   11       1
    11   11   12       1
    12   11   13       1
    13   12   17       1
    14   13   14       1
    15   13   15       1
    16   15   16       1
    17   15   17       1
    18   17   18       1
    19   18   19       1
    20   18   27       1
    21   19   20       2
    22   20   21       1
    23   21   22      ar
    24   21   27      ar
    25   22   23       1
    26   22   24      ar
    27   24   25      ar
    28   25   26      ar
    29   26   27      ar
    30   25   39       1
    31   23   38       1
    32   23   37       1
    33   10   28       1
    34   10   29       1
    35   11   30       1
    36   13   31       1
    37   14   32       1
    38   15   33       1
    39   16   34       1
    40   17   35       1
    41   19   36       1
@<TRIPOS>SUBSTRUCTURE
     1 ADP1001     1 GROUP             4 D     ADP     0 **** ADP D1001
