@<TRIPOS>MOLECULE
1v1a_KDG_1_ligand
   21    20     1     0     0
SMALL
NO_CHARGES


@<TRIPOS>ATOM
     1 O1B         28.2860    42.7670    26.3890 O.3          1 KDG1302   0.0000
     2 C1          28.6640    41.9590    27.5060 C.3          1 KDG1302   0.0000
     3 C2          27.5250    41.9820    28.4940 C.3          1 KDG1302   0.0000
     4 O2          26.4550    41.2750    27.9310 O.3          1 KDG1302   0.0000
     5 C3          27.9120    41.3830    29.8710 C.3          1 KDG1302   0.0000
     6 O3          29.0770    42.0190    30.4100 O.3          1 KDG1302   0.0000
     7 C4          26.7650    41.5270    30.8780 C.3          1 KDG1302   0.0000
     8 O5          26.1220    43.8210    30.4720 O.2          1 KDG1302   0.0000
     9 C5          25.7580    42.6450    30.5640 C.2          1 KDG1302   0.0000
    10 C6          24.2890    42.2930    30.3420 C.2          1 KDG1302   0.0000
    11 O6A         23.9890    41.2730    29.6910 O.co2        1 KDG1302   0.0000
    12 O6B         23.4280    43.0500    30.8270 O.co2        1 KDG1302  -1.0000
    13 H1B         28.9388    43.5172    26.2842 H            1 KDG1302   0.0000
    14 H2          29.4904    42.3293    27.9301 H            1 KDG1302   0.0000
    15 H3          28.8353    41.0208    27.2053 H            1 KDG1302   0.0000
    16 H4          27.2417    42.9314    28.6294 H            1 KDG1302   0.0000
    17 H5          25.6838    41.2748    28.5676 H            1 KDG1302   0.0000
    18 H6          28.1084    40.4099    29.7503 H            1 KDG1302   0.0000
    19 H7          29.5795    41.3676    30.9785 H            1 KDG1302   0.0000
    20 H8          27.1630    41.7120    31.7765 H            1 KDG1302   0.0000
    21 H9          26.2669    40.6604    30.9061 H            1 KDG1302   0.0000
@<TRIPOS>BOND
     1    1    2       1
     2    2    3       1
     3    3    4       1
     4    3    5       1
     5    5    6       1
     6    5    7       1
     7    7    9       1
     8    8    9       2
     9    9   10       1
    10   10   11      ar
    11   10   12      ar
    12    1   13       1
    13    2   14       1
    14    2   15       1
    15    3   16       1
    16    4   17       1
    17    5   18       1
    18    6   19       1
    19    7   20       1
    20    7   21       1
@<TRIPOS>SUBSTRUCTURE
     1 KDG1302     1 GROUP             4 A     KDG     0 **** KDG A1302
