@<TRIPOS>MOLECULE
4tx9_AMZ_1_ligand
   35    36     1     0     0
SMALL
NO_CHARGES


@<TRIPOS>ATOM
     1 O5          37.4380    23.1510    19.3130 O.2          1 AMZ302   0.0000
     2 C6          36.7740    24.1380    19.5910 C.2          1 AMZ302   0.0000
     3 N2          37.0780    25.4110    19.3360 N.am         1 AMZ302   0.0000
     4 C3A         35.5240    24.0340    20.3510 C.2          1 AMZ302   0.0000
     5 C7A         34.8930    22.9180    20.8010 C.2          1 AMZ302   0.0000
     6 N3          35.3180    21.6040    20.7370 N.pl3        1 AMZ302   0.0000
     7 N1          34.7310    25.0970    20.6640 N.2          1 AMZ302   0.0000
     8 C5          33.6610    24.6280    21.2820 C.2          1 AMZ302   0.0000
     9 N           33.7850    23.2840    21.3920 N.pl3        1 AMZ302   0.0000
    10 C1          32.7390    22.4110    21.9740 C.3          1 AMZ302   0.0000
    11 C2          32.5980    22.4290    23.4640 C.3          1 AMZ302   0.0000
    12 C3          31.1690    21.9270    23.5870 C.3          1 AMZ302   0.0000
    13 O2          31.1600    20.4940    23.4050 O.3          1 AMZ302   0.0000
    14 O1          33.5950    21.5750    24.0120 O.3          1 AMZ302   0.0000
    15 O           31.4860    22.9390    21.4640 O.3          1 AMZ302   0.0000
    16 C           30.4820    22.6660    22.4460 C.3          1 AMZ302   0.0000
    17 C4          29.8420    23.9130    23.0280 C.3          1 AMZ302   0.0000
    18 O3          29.1090    24.6340    22.0250 O.3          1 AMZ302   0.0000
    19 P           28.2180    25.8500    22.5040 P.3          1 AMZ302   0.0000
    20 OP1         29.1940    26.8630    23.1560 O.co2        1 AMZ302   0.0000
    21 O4          27.2650    25.2920    23.5210 O.co2        1 AMZ302  -1.0000
    22 OP2         27.6650    26.3710    21.2040 O.co2        1 AMZ302  -1.0000
    23 H1          36.4518    26.1398    19.6131 H            1 AMZ302   0.0000
    24 H2          37.9322    25.6369    18.8676 H            1 AMZ302   0.0000
    25 H3          34.7460    20.8746    21.1123 H            1 AMZ302   0.0000
    26 H4          36.1974    21.3829    20.3154 H            1 AMZ302   0.0000
    27 H5          32.8905    25.1732    21.6123 H            1 AMZ302   0.0000
    28 H6          32.8657    21.4713    21.6563 H            1 AMZ302   0.0000
    29 H7          32.6845    23.3587    23.8221 H            1 AMZ302   0.0000
    30 H8          30.7733    22.1802    24.4698 H            1 AMZ302   0.0000
    31 H9          31.2794    20.0448    24.2904 H            1 AMZ302   0.0000
    32 H10         34.1913    22.1036    24.6161 H            1 AMZ302   0.0000
    33 H11         29.7747    22.0821    22.0475 H            1 AMZ302   0.0000
    34 H12         30.5578    24.5051    23.3983 H            1 AMZ302   0.0000
    35 H13         29.2167    23.6472    23.7617 H            1 AMZ302   0.0000
@<TRIPOS>BOND
     1    1    2       2
     2    2    3      am
     3    2    4       1
     4    4    5       2
     5    4    7       1
     6    5    6       1
     7    5    9       1
     8    7    8       2
     9    8    9       1
    10    9   10       1
    11   10   11       1
    12   10   15       1
    13   11   12       1
    14   11   14       1
    15   12   13       1
    16   12   16       1
    17   15   16       1
    18   16   17       1
    19   17   18       1
    20   18   19       1
    21   19   20      ar
    22   19   21      ar
    23   19   22      ar
    24    3   23       1
    25    3   24       1
    26    6   25       1
    27    6   26       1
    28    8   27       1
    29   10   28       1
    30   11   29       1
    31   12   30       1
    32   13   31       1
    33   14   32       1
    34   16   33       1
    35   17   34       1
    36   17   35       1
@<TRIPOS>SUBSTRUCTURE
     1 AMZ302      1 GROUP             4 A     AMZ     0 **** AMZ A 302
