@<TRIPOS>MOLECULE
3c0z_SHH_2_ligand
   21    20     1     0     0
SMALL
NO_CHARGES


@<TRIPOS>ATOM
     1 O1           4.6080     1.7250   -11.0210 O.3          1 SHH301  -1.0000
     2 O2           4.6420    -0.3610   -12.7850 O.2          1 SHH301   0.0000
     3 N1           5.6920     1.4150   -11.8400 N.am         1 SHH301   0.0000
     4 C1           5.5060     0.5390   -12.8510 C.2          1 SHH301   0.0000
     5 C2           6.3990     0.7960   -14.0790 C.3          1 SHH301   0.0000
     6 C3           7.4250    -0.2830   -14.4150 C.3          1 SHH301   0.0000
     7 C4           7.8640    -0.1860   -15.8840 C.3          1 SHH301   0.0000
     8 C5           9.3670    -0.3140   -16.1230 C.3          1 SHH301   0.0000
     9 C6           9.8470    -1.7610   -16.0280 C.3          1 SHH301   0.0000
    10 H1           6.5873     1.8317   -11.6827 H            1 SHH301   0.0000
    11 H2           6.8965     1.6487   -13.9194 H            1 SHH301   0.0000
    12 H3           5.8001     0.9030   -14.8727 H            1 SHH301   0.0000
    13 H4           7.0186    -1.1824   -14.2537 H            1 SHH301   0.0000
    14 H5           8.2251    -0.1683   -13.8262 H            1 SHH301   0.0000
    15 H6           7.5691     0.7019   -16.2371 H            1 SHH301   0.0000
    16 H7           7.4066    -0.9156   -16.3924 H            1 SHH301   0.0000
    17 H8           9.8494     0.2307   -15.4370 H            1 SHH301   0.0000
    18 H9           9.5786     0.0359   -17.0356 H            1 SHH301   0.0000
    19 H10         10.8330    -1.7965   -16.1907 H            1 SHH301   0.0000
    20 H11          9.6465    -2.1195   -15.1163 H            1 SHH301   0.0000
    21 H12          9.3757    -2.3143   -16.7148 H            1 SHH301   0.0000
@<TRIPOS>BOND
     1    1    3       1
     2    2    4       2
     3    3    4      am
     4    4    5       1
     5    5    6       1
     6    6    7       1
     7    7    8       1
     8    8    9       1
     9    9   21       1
    10    3   10       1
    11    5   11       1
    12    5   12       1
    13    6   13       1
    14    6   14       1
    15    7   15       1
    16    7   16       1
    17    8   17       1
    18    8   18       1
    19    9   19       1
    20    9   20       1
@<TRIPOS>SUBSTRUCTURE
     1 SHH301      1 GROUP             4 B     SHH     0 **** SHH B 301
