@<TRIPOS>MOLECULE
4q9e_XXH_1_ligand
   16    16     1     0     0
SMALL
NO_CHARGES


@<TRIPOS>ATOM
     1 O3         -16.1460   -28.4500   -17.4180 O.2          1 XXH202   0.0000
     2 C4         -18.4620   -28.3850   -17.0140 C.ar         1 XXH202   0.0000
     3 C5         -16.9920   -28.0470   -16.6180 C.2          1 XXH202   0.0000
     4 C6         -18.6890   -29.0870   -18.2200 C.ar         1 XXH202   0.0000
     5 N1         -22.5640   -29.4830   -18.3370 N.2          1 XXH202   1.0000
     6 C7         -20.0110   -29.4530   -18.6710 C.ar         1 XXH202   0.0000
     7 C3         -19.6100   -28.0210   -16.2030 C.ar         1 XXH202   0.0000
     8 C2         -21.0470   -28.3790   -16.6210 C.ar         1 XXH202   0.0000
     9 C1         -21.2560   -29.0950   -17.8530 C.ar         1 XXH202   0.0000
    10 O1         -23.5110   -29.6500   -17.5530 O.co2        1 XXH202   0.0000
    11 O2         -22.7560   -29.6780   -19.5380 O.co2        1 XXH202  -1.0000
    12 H1         -16.7560   -27.5458   -15.7855 H            1 XXH202   0.0000
    13 H2         -17.9025   -29.3402   -18.7833 H            1 XXH202   0.0000
    14 H3         -20.1158   -29.9491   -19.5329 H            1 XXH202   0.0000
    15 H4         -19.4626   -27.5234   -15.3482 H            1 XXH202   0.0000
    16 H5         -21.8231   -28.1187   -16.0466 H            1 XXH202   0.0000
@<TRIPOS>BOND
     1    1    3       2
     2    2    3       1
     3    2    4      ar
     4    2    7      ar
     5    4    6      ar
     6    5    9       1
     7    5   10      ar
     8    5   11      ar
     9    6    9      ar
    10    7    8      ar
    11    8    9      ar
    12    3   12       1
    13    4   13       1
    14    6   14       1
    15    7   15       1
    16    8   16       1
@<TRIPOS>SUBSTRUCTURE
     1 XXH202      1 GROUP             4 C     XXH     0 **** XXH C 202
