@<TRIPOS>MOLECULE
1d3h_A26_1_ligand
   28    28     1     0     0
SMALL
NO_CHARGES


@<TRIPOS>ATOM
     1 C1          50.1810    43.2660     0.0200 C.ar         1 A26397   0.0000
     2 C2          50.6820    44.4900     0.4310 C.ar         1 A26397   0.0000
     3 C3          51.1870    45.3780    -0.5400 C.ar         1 A26397   0.0000
     4 C4          51.1660    45.0150    -1.8730 C.ar         1 A26397   0.0000
     5 C5          50.6520    43.8260    -2.2890 C.ar         1 A26397   0.0000
     6 C6          50.1500    42.9190    -1.3190 C.ar         1 A26397   0.0000
     7 C11         51.7730    46.7000    -0.1590 C.3          1 A26397   0.0000
     8 F12         52.7580    46.9440    -0.7650 F            1 A26397   0.0000
     9 F13         52.0500    46.6020     1.0900 F            1 A26397   0.0000
    10 F14         50.9500    47.3820    -0.0700 F            1 A26397   0.0000
    11 N15         49.6420    41.7010    -1.6210 N.am         1 A26397   0.0000
    12 C16         49.1460    41.2830    -2.7790 C.2          1 A26397   0.0000
    13 C17         48.3010    40.0430    -2.8350 C.2          1 A26397   0.0000
    14 C18         47.7490    39.7500    -4.1330 C.1          1 A26397   0.0000
    15 C19         48.0610    39.3550    -1.6810 C.2          1 A26397   0.0000
    16 O20         48.6190    39.7530    -0.5020 O.3          1 A26397   0.0000
    17 C21         47.3010    38.0580    -1.5100 C.3          1 A26397   0.0000
    18 O25         49.2510    41.9160    -3.8450 O.2          1 A26397   0.0000
    19 N26         47.1810    39.2610    -5.0110 N.1          1 A26397   0.0000
    20 H1          49.8358    42.6220     0.7027 H            1 A26397   0.0000
    21 H2          50.6854    44.7393     1.3994 H            1 A26397   0.0000
    22 H3          51.5401    45.6457    -2.5529 H            1 A26397   0.0000
    23 H4          50.6282    43.5948    -3.2616 H            1 A26397   0.0000
    24 H5          49.6402    41.0318    -0.8779 H            1 A26397   0.0000
    25 H6          48.4351    39.2401     0.3365 H            1 A26397   0.0000
    26 H7          47.2935    37.8010    -0.5436 H            1 A26397   0.0000
    27 H8          46.3613    38.1775    -1.8305 H            1 A26397   0.0000
    28 H9          47.7459    37.3382    -2.0429 H            1 A26397   0.0000
@<TRIPOS>BOND
     1    1    2      ar
     2    1    6      ar
     3    2    3      ar
     4    3    4      ar
     5    3    7       1
     6    4    5      ar
     7    5    6      ar
     8    6   11       1
     9    7    8       1
    10    7    9       1
    11    7   10       1
    12   11   12      am
    13   12   13       1
    14   12   18       2
    15   13   14       1
    16   13   15       2
    17   14   19       3
    18   15   16       1
    19   15   17       1
    20    1   20       1
    21    2   21       1
    22    4   22       1
    23    5   23       1
    24   11   24       1
    25   16   25       1
    26   17   26       1
    27   17   27       1
    28   17   28       1
@<TRIPOS>SUBSTRUCTURE
     1 A26397      1 GROUP             4 A     A26     0 **** A26 A 397
