@<TRIPOS>MOLECULE
4f3x_NAD_1_ligand
   70    74     1     0     0
SMALL
NO_CHARGES


@<TRIPOS>ATOM
     1 PA         -26.3810    21.9560     5.3950 P.3          1 NAD500   0.0000
     2 O1A        -25.9730    22.9150     4.3120 O.co2        1 NAD500   0.0000
     3 O2A        -26.6070    22.4340     6.7990 O.co2        1 NAD500  -1.0000
     4 O5B        -25.3690    20.6920     5.4760 O.3          1 NAD500   0.0000
     5 C5B        -24.9330    19.9570     4.3270 C.3          1 NAD500   0.0000
     6 C4B        -23.4950    19.4980     4.5400 C.3          1 NAD500   0.0000
     7 O4B        -22.6610    20.6680     4.5850 O.3          1 NAD500   0.0000
     8 C3B        -23.2390    18.7550     5.8470 C.3          1 NAD500   0.0000
     9 O3B        -22.2880    17.7100     5.6240 O.3          1 NAD500   0.0000
    10 C2B        -22.6160    19.8420     6.6870 C.3          1 NAD500   0.0000
    11 O2B        -21.8330    19.3730     7.7720 O.3          1 NAD500   0.0000
    12 C1B        -21.7750    20.6040     5.6830 C.3          1 NAD500   0.0000
    13 N9A        -21.5040    21.9820     6.1510 N.pl3        1 NAD500   0.0000
    14 C8A        -22.3300    22.7130     6.9090 C.2          1 NAD500   0.0000
    15 N7A        -21.7920    23.9300     7.1810 N.2          1 NAD500   0.0000
    16 C5A        -20.5880    23.9830     6.5800 C.ar         1 NAD500   0.0000
    17 C6A        -19.5090    24.9960     6.4800 C.ar         1 NAD500   0.0000
    18 N6A        -19.6230    26.2080     7.0940 N.pl3        1 NAD500   0.0000
    19 N1A        -18.4200    24.6700     5.7690 N.ar         1 NAD500   0.0000
    20 C2A        -18.3130    23.4650     5.1470 C.ar         1 NAD500   0.0000
    21 N3A        -19.2490    22.4930     5.2060 N.ar         1 NAD500   0.0000
    22 C4A        -20.4030    22.7040     5.8940 C.ar         1 NAD500   0.0000
    23 O3         -27.6950    21.2360     4.7950 O.3          1 NAD500   0.0000
    24 PN         -28.4280    20.0020     5.5110 P.3          1 NAD500   0.0000
    25 O1N        -29.5240    19.4960     4.5970 O.co2        1 NAD500   0.0000
    26 O2N        -27.4190    18.9700     5.9790 O.co2        1 NAD500  -1.0000
    27 O5D        -28.9810    20.8390     6.7890 O.3          1 NAD500   0.0000
    28 C5D        -30.3630    21.0390     7.0910 C.3          1 NAD500   0.0000
    29 C4D        -30.8440    22.4750     6.8830 C.3          1 NAD500   0.0000
    30 O4D        -30.5200    22.9490     5.5720 O.3          1 NAD500   0.0000
    31 C3D        -32.3610    22.5220     7.0030 C.3          1 NAD500   0.0000
    32 O3D        -32.7420    23.6130     7.8510 O.3          1 NAD500   0.0000
    33 C2D        -32.8920    22.7070     5.5920 C.3          1 NAD500   0.0000
    34 O2D        -33.9670    23.6490     5.5440 O.3          1 NAD500   0.0000
    35 C1D        -31.7060    23.2570     4.8180 C.3          1 NAD500   0.0000
    36 N1N        -31.6280    22.7280     3.4450 N.ar         1 NAD500   1.0000
    37 C2N        -31.2150    21.4710     3.1890 C.ar         1 NAD500   0.0000
    38 C3N        -31.1330    21.0000     1.8770 C.ar         1 NAD500   0.0000
    39 C7N        -30.6760    19.6020     1.5720 C.2          1 NAD500   0.0000
    40 O7N        -30.2740    19.3320     0.4460 O.2          1 NAD500   0.0000
    41 N7N        -30.7240    18.6810     2.5360 N.am         1 NAD500   0.0000
    42 C4N        -31.4800    21.8460     0.8320 C.ar         1 NAD500   0.0000
    43 C5N        -31.8960    23.1370     1.1140 C.ar         1 NAD500   0.0000
    44 C6N        -31.9610    23.5540     2.4390 C.ar         1 NAD500   0.0000
    45 H5B1       -24.9806    20.5426     3.5178 H            1 NAD500   0.0000
    46 H5B2       -25.5225    19.1598     4.1967 H            1 NAD500   0.0000
    47 H4B        -23.2149    18.9219     3.7721 H            1 NAD500   0.0000
    48 H3B        -24.0855    18.4093     6.2519 H            1 NAD500   0.0000
    49 H5         -22.6474    17.0719     4.9431 H            1 NAD500   0.0000
    50 H2B        -23.3361    20.4419     7.0358 H            1 NAD500   0.0000
    51 H7         -22.4045    18.8255     8.3833 H            1 NAD500   0.0000
    52 H1B        -20.9329    20.1153     5.4547 H            1 NAD500   0.0000
    53 H8A        -23.2245    22.4041     7.2322 H            1 NAD500   0.0000
    54 H6A1       -18.8859    26.8792     7.0162 H            1 NAD500   0.0000
    55 H6A2       -20.4438    26.4257     7.6222 H            1 NAD500   0.0000
    56 H2A        -17.4876    23.2872     4.6112 H            1 NAD500   0.0000
    57 H5D1       -30.5145    20.7923     8.0482 H            1 NAD500   0.0000
    58 H5D2       -30.9036    20.4380     6.5023 H            1 NAD500   0.0000
    59 H4D        -30.4316    23.0728     7.5704 H            1 NAD500   0.0000
    60 H3D        -32.6990    21.6612     7.3836 H            1 NAD500   0.0000
    61 H17        -33.2484    23.2619     8.6386 H            1 NAD500   0.0000
    62 H2D        -33.1806    21.8290     5.2102 H            1 NAD500   0.0000
    63 H19        -34.1481    23.9953     6.4645 H            1 NAD500   0.0000
    64 H1D        -31.7972    24.2515     4.7673 H            1 NAD500   0.0000
    65 H2N        -30.9645    20.8688     3.9471 H            1 NAD500   0.0000
    66 H7N1       -30.4235    17.7457     2.3493 H            1 NAD500   0.0000
    67 H7N2       -31.0605    18.9260     3.4453 H            1 NAD500   0.0000
    68 H4N        -31.4301    21.5267    -0.1143 H            1 NAD500   0.0000
    69 H5N        -32.1464    23.7612     0.3740 H            1 NAD500   0.0000
    70 H6N        -32.2609    24.4851     2.6468 H            1 NAD500   0.0000
@<TRIPOS>BOND
     1    1    2      ar
     2    1    3      ar
     3    1    4       1
     4    1   23       1
     5    4    5       1
     6    5    6       1
     7    6    7       1
     8    6    8       1
     9    7   12       1
    10    8    9       1
    11    8   10       1
    12   10   11       1
    13   10   12       1
    14   12   13       1
    15   13   14       1
    16   13   22       1
    17   14   15       2
    18   15   16       1
    19   16   17      ar
    20   16   22      ar
    21   17   18       1
    22   17   19      ar
    23   19   20      ar
    24   20   21      ar
    25   21   22      ar
    26   23   24       1
    27   24   25      ar
    28   24   26      ar
    29   24   27       1
    30   27   28       1
    31   28   29       1
    32   29   30       1
    33   29   31       1
    34   30   35       1
    35   31   32       1
    36   31   33       1
    37   33   34       1
    38   33   35       1
    39   35   36       1
    40   36   37      ar
    41   36   44      ar
    42   37   38      ar
    43   38   39       1
    44   38   42      ar
    45   39   40       2
    46   39   41      am
    47   42   43      ar
    48   43   44      ar
    49   44   70       1
    50    5   45       1
    51    5   46       1
    52    6   47       1
    53    8   48       1
    54    9   49       1
    55   10   50       1
    56   11   51       1
    57   12   52       1
    58   14   53       1
    59   18   54       1
    60   18   55       1
    61   20   56       1
    62   43   69       1
    63   28   57       1
    64   28   58       1
    65   29   59       1
    66   31   60       1
    67   32   61       1
    68   33   62       1
    69   34   63       1
    70   35   64       1
    71   37   65       1
    72   41   66       1
    73   41   67       1
    74   42   68       1
@<TRIPOS>SUBSTRUCTURE
     1 NAD500      1 GROUP             4 A     NAD     0 **** NAD A 500
