@<TRIPOS>MOLECULE
4hh4_SAH_4_ligand
   46    48     1     0     0
SMALL
NO_CHARGES


@<TRIPOS>ATOM
     1 N          -18.7170   -52.0830   -20.5340 N.4          1 SAH301   1.0000
     2 CA         -18.3350   -52.9440   -21.6530 C.3          1 SAH301   0.0000
     3 CB         -16.9550   -53.5570   -21.4150 C.3          1 SAH301   0.0000
     4 CG         -16.8060   -54.1230   -19.9990 C.3          1 SAH301   0.0000
     5 SD         -15.2130   -54.8840   -19.8310 S.3          1 SAH301   0.0000
     6 C          -19.3590   -54.0320   -21.7810 C.2          1 SAH301   0.0000
     7 O          -19.4180   -54.8100   -22.6980 O.co2        1 SAH301   0.0000
     8 OXT        -20.2290   -54.2390   -20.9740 O.co2        1 SAH301  -1.0000
     9 C5'        -14.3640   -53.7680   -18.7520 C.3          1 SAH301   0.0000
    10 C4'        -13.7780   -52.6570   -19.6220 C.3          1 SAH301   0.0000
    11 O4'        -13.1830   -51.6440   -18.8090 O.3          1 SAH301   0.0000
    12 C3'        -12.6850   -53.1810   -20.5420 C.3          1 SAH301   0.0000
    13 O3'        -12.8870   -52.5600   -21.8160 O.3          1 SAH301   0.0000
    14 C2'        -11.4060   -52.7260   -19.8590 C.3          1 SAH301   0.0000
    15 O2'        -10.3220   -52.5790   -20.7730 O.3          1 SAH301   0.0000
    16 C1'        -11.8420   -51.4070   -19.2510 C.3          1 SAH301   0.0000
    17 N9         -11.0530   -50.9350   -18.0850 N.pl3        1 SAH301   0.0000
    18 C8         -10.5380   -51.6900   -17.1050 C.2          1 SAH301   0.0000
    19 N7          -9.8910   -50.9130   -16.1940 N.2          1 SAH301   0.0000
    20 C5         -10.0070   -49.6380   -16.5760 C.ar         1 SAH301   0.0000
    21 C6          -9.5620   -48.3320   -16.0500 C.ar         1 SAH301   0.0000
    22 N6          -8.8490   -48.2730   -14.8980 N.pl3        1 SAH301   0.0000
    23 N1          -9.8810   -47.2160   -16.7460 N.ar         1 SAH301   0.0000
    24 C2         -10.5860   -47.3000   -17.8940 C.ar         1 SAH301   0.0000
    25 N3         -11.0270   -48.4570   -18.4260 N.ar         1 SAH301   0.0000
    26 C4         -10.7760   -49.6470   -17.8190 C.ar         1 SAH301   0.0000
    27 H1         -19.6208   -51.6919   -20.7077 H            1 SAH301   0.0000
    28 H2         -18.7433   -52.6223   -19.6923 H            1 SAH301   0.0000
    29 HA         -18.3174   -52.4048   -22.4950 H            1 SAH301   0.0000
    30 HB1        -16.2611   -52.8504   -21.5535 H            1 SAH301   0.0000
    31 HB2        -16.8138   -54.2964   -22.0733 H            1 SAH301   0.0000
    32 HG1        -17.5197   -54.8041   -19.8355 H            1 SAH301   0.0000
    33 HG2        -16.8934   -53.3822   -19.3330 H            1 SAH301   0.0000
    34 H5'1       -13.6312   -54.2483   -18.2699 H            1 SAH301   0.0000
    35 H5'2       -15.0031   -53.3815   -18.0870 H            1 SAH301   0.0000
    36 H4'        -14.5067   -52.2512   -20.1736 H            1 SAH301   0.0000
    37 H3'        -12.7210   -54.1776   -20.6156 H            1 SAH301   0.0000
    38 H12        -12.8227   -51.5670   -21.7167 H            1 SAH301   0.0000
    39 H2'        -11.1576   -53.3700   -19.1354 H            1 SAH301   0.0000
    40 H14        -10.3117   -51.6451   -21.1305 H            1 SAH301   0.0000
    41 H1'        -11.8452   -50.7000   -19.9582 H            1 SAH301   0.0000
    42 H16        -10.6179   -52.6853   -17.0506 H            1 SAH301   0.0000
    43 H17         -8.5474   -47.3888   -14.5414 H            1 SAH301   0.0000
    44 H18         -8.6248   -49.1137   -14.4051 H            1 SAH301   0.0000
    45 H19        -10.7940   -46.4511   -18.3799 H            1 SAH301   0.0000
    46 H20        -18.0480   -51.3461   -20.4369 H            1 SAH301   0.0000
@<TRIPOS>BOND
     1    1    2       1
     2    2    3       1
     3    2    6       1
     4    3    4       1
     5    4    5       1
     6    5    9       1
     7    6    7      ar
     8    6    8      ar
     9    9   10       1
    10   10   11       1
    11   10   12       1
    12   11   16       1
    13   12   13       1
    14   12   14       1
    15   14   15       1
    16   14   16       1
    17   16   17       1
    18   17   18       1
    19   17   26       1
    20   18   19       2
    21   19   20       1
    22   20   21      ar
    23   20   26      ar
    24   21   22       1
    25   21   23      ar
    26   23   24      ar
    27   24   25      ar
    28   25   26      ar
    29    1   27       1
    30    1   28       1
    31    2   29       1
    32    3   30       1
    33    3   31       1
    34    4   32       1
    35    4   33       1
    36    1   46       1
    37    9   34       1
    38    9   35       1
    39   10   36       1
    40   12   37       1
    41   13   38       1
    42   14   39       1
    43   15   40       1
    44   16   41       1
    45   18   42       1
    46   22   43       1
    47   22   44       1
    48   24   45       1
@<TRIPOS>SUBSTRUCTURE
     1 SAH301      1 GROUP             4 D     SAH     0 **** SAH D 301
