@<TRIPOS>MOLECULE
2p99_YE6_1_ligand
   25    26     1     0     0
SMALL
NO_CHARGES


@<TRIPOS>ATOM
     1 CLAP        -5.9060     1.2490     9.6940 Cl           1 YE6265   0.0000
     2 CAG         -5.7530    -0.0300     8.5380 C.ar         1 YE6265   0.0000
     3 CAH         -6.9030    -0.4750     7.8930 C.ar         1 YE6265   0.0000
     4 CAI         -6.8310    -1.4580     6.9130 C.ar         1 YE6265   0.0000
     5 CAJ         -5.5970    -2.0030     6.5730 C.ar         1 YE6265   0.0000
     6 CAK         -4.4480    -1.5630     7.2180 C.ar         1 YE6265   0.0000
     7 CAF         -4.5180    -0.5790     8.2020 C.ar         1 YE6265   0.0000
     8 CAD         -3.3290    -0.2080     8.8200 C.2          1 YE6265   0.0000
     9 OAN         -2.1310    -0.4230     8.2010 O.2          1 YE6265   0.0000
    10 CAC         -3.1060     0.3830     9.9950 C.2          1 YE6265   0.0000
    11 CAB         -1.7960     0.5550    10.1500 C.2          1 YE6265   0.0000
    12 CAA         -1.1960     0.0690     9.0640 C.2          1 YE6265   0.0000
    13 CAE          0.3080     0.0660     8.7880 C.2          1 YE6265   0.0000
    14 OAO          0.7340     0.0070     7.6370 O.2          1 YE6265   0.0000
    15 NAL          1.0890     0.1210     9.8640 N.am         1 YE6265   0.0000
    16 NAM          2.3120     0.1260     9.7160 N.3          1 YE6265   0.0000
    17 HAH         -7.7902    -0.0835     8.1371 H            1 YE6265   0.0000
    18 HAI         -7.6623    -1.7720     6.4545 H            1 YE6265   0.0000
    19 HAJ         -5.5373    -2.7087     5.8670 H            1 YE6265   0.0000
    20 HAK         -3.5617    -1.9564     6.9736 H            1 YE6265   0.0000
    21 HAC         -3.8094     0.6529    10.6525 H            1 YE6265   0.0000
    22 HAB         -1.3439     0.9729    10.9380 H            1 YE6265   0.0000
    23 HAL          0.6889     0.1578    10.7797 H            1 YE6265   0.0000
    24 HAM1         2.7363     0.6350    10.4649 H            1 YE6265   0.0000
    25 HAM2         2.6518    -0.8145     9.7176 H            1 YE6265   0.0000
@<TRIPOS>BOND
     1    1    2       1
     2    2    3      ar
     3    2    7      ar
     4    3    4      ar
     5    4    5      ar
     6    5    6      ar
     7    6    7      ar
     8    7    8       1
     9    8    9       1
    10    8   10       2
    11    9   12       1
    12   10   11       1
    13   11   12       2
    14   12   13       1
    15   13   14       2
    16   13   15      am
    17   15   16       1
    18    3   17       1
    19    4   18       1
    20    5   19       1
    21    6   20       1
    22   10   21       1
    23   11   22       1
    24   15   23       1
    25   16   24       1
    26   16   25       1
@<TRIPOS>SUBSTRUCTURE
     1 YE6265      1 GROUP             4 A     YE6     0 **** YE6 A 265
