@<TRIPOS>MOLECULE
4jui_EGR_2_ligand
   24    24     1     0     0
SMALL
NO_CHARGES


@<TRIPOS>ATOM
     1 C01         26.6850    58.6790    31.2390 C.3          1 EGR501   0.0000
     2 C02         27.7670    57.6920    31.5860 C.3          1 EGR501   0.0000
     3 O03         28.8000    58.1230    32.4250 O.3          1 EGR501   0.0000
     4 C04         28.9030    57.5750    33.7020 C.2          1 EGR501   0.0000
     5 O05         29.2540    56.4260    33.9200 O.2          1 EGR501   0.0000
     6 C06         28.1350    58.2870    34.7430 C.ar         1 EGR501   0.0000
     7 C07         27.7910    57.6710    35.9350 C.ar         1 EGR501   0.0000
     8 C08         27.0600    58.4040    36.8530 C.ar         1 EGR501   0.0000
     9 O09         26.7110    57.8180    38.0480 O.3          1 EGR501   0.0000
    10 C10         26.6850    59.7220    36.5680 C.ar         1 EGR501   0.0000
    11 O11         25.9570    60.4580    37.4800 O.3          1 EGR501   0.0000
    12 C12         27.0420    60.3160    35.3670 C.ar         1 EGR501   0.0000
    13 O13         26.6850    61.6120    35.0580 O.3          1 EGR501   0.0000
    14 C14         27.7710    59.5880    34.4530 C.ar         1 EGR501   0.0000
    15 H1          26.0160    58.2424    30.6374 H            1 EGR501   0.0000
    16 H2          26.2312    58.9842    32.0762 H            1 EGR501   0.0000
    17 H3          27.0888    59.4661    30.7728 H            1 EGR501   0.0000
    18 H4          28.1849    57.3939    30.7278 H            1 EGR501   0.0000
    19 H5          27.3273    56.9120    32.0312 H            1 EGR501   0.0000
    20 H6          28.0621    56.7275    36.1258 H            1 EGR501   0.0000
    21 H7          26.1828    58.3339    38.7224 H            1 EGR501   0.0000
    22 H8          25.6924    60.0505    38.3540 H            1 EGR501   0.0000
    23 H9          26.9586    62.0108    34.1827 H            1 EGR501   0.0000
    24 H10         28.0363    60.0001    33.5813 H            1 EGR501   0.0000
@<TRIPOS>BOND
     1    1    2       1
     2    2    3       1
     3    3    4       1
     4    4    5       2
     5    4    6       1
     6    6    7      ar
     7    6   14      ar
     8    7    8      ar
     9    8    9       1
    10    8   10      ar
    11   10   11       1
    12   10   12      ar
    13   12   13       1
    14   12   14      ar
    15    1   15       1
    16    1   16       1
    17    1   17       1
    18    2   18       1
    19    2   19       1
    20    7   20       1
    21    9   21       1
    22   11   22       1
    23   13   23       1
    24   14   24       1
@<TRIPOS>SUBSTRUCTURE
     1 EGR501      1 GROUP             4 B     EGR     0 **** EGR B 501
