@<TRIPOS>MOLECULE
4yqf_GDP_1_ligand
   40    42     1     0     0
SMALL
NO_CHARGES


@<TRIPOS>ATOM
     1 PB          33.5870    -5.2040   -26.2470 P.3          1 GDP301   0.0000
     2 O1B         33.7460    -4.2090   -27.3690 O.co2        1 GDP301   0.0000
     3 O2B         33.8800    -4.5370   -24.9250 O.co2        1 GDP301  -1.0000
     4 O3B         34.5510    -6.3500   -26.4430 O.co2        1 GDP301  -1.0000
     5 O3A         32.0970    -5.7980   -26.2180 O.3          1 GDP301   0.0000
     6 PA          30.8740    -5.0640   -25.4710 P.3          1 GDP301   0.0000
     7 O1A         30.8090    -3.5800   -25.7510 O.co2        1 GDP301   0.0000
     8 O2A         30.9180    -5.3410   -23.9880 O.co2        1 GDP301  -1.0000
     9 O5'         29.6260    -5.8350   -26.1320 O.3          1 GDP301   0.0000
    10 C5'         29.2330    -5.5200   -27.4680 C.3          1 GDP301   0.0000
    11 C4'         27.8890    -6.1620   -27.7650 C.3          1 GDP301   0.0000
    12 O4'         27.9670    -7.5650   -27.5040 O.3          1 GDP301   0.0000
    13 C3'         26.8140    -5.6020   -26.8540 C.3          1 GDP301   0.0000
    14 O3'         25.6700    -5.2750   -27.6470 O.3          1 GDP301   0.0000
    15 C2'         26.4790    -6.7290   -25.9000 C.3          1 GDP301   0.0000
    16 O2'         25.0890    -6.7250   -25.5650 O.3          1 GDP301   0.0000
    17 C1'         26.8770    -7.9740   -26.6770 C.3          1 GDP301   0.0000
    18 N9          27.3210    -9.0580   -25.7720 N.pl3        1 GDP301   0.0000
    19 C8          28.0730    -8.9190   -24.6640 C.2          1 GDP301   0.0000
    20 N7          28.3000   -10.1260   -24.0850 N.2          1 GDP301   0.0000
    21 C5          27.6940   -11.0640   -24.8420 C.2          1 GDP301   0.0000
    22 C6          27.5380   -12.5390   -24.8100 C.2          1 GDP301   0.0000
    23 O6          28.0500   -13.2190   -23.9010 O.2          1 GDP301   0.0000
    24 N1          26.8330   -13.1250   -25.7850 N.pl3        1 GDP301   0.0000
    25 C2          26.2690   -12.4190   -26.7830 C.2          1 GDP301   0.0000
    26 N2          25.5710   -13.0830   -27.7330 N.pl3        1 GDP301   0.0000
    27 N3          26.3690   -11.0680   -26.8800 N.2          1 GDP301   0.0000
    28 C4          27.0550   -10.3520   -25.9570 C.2          1 GDP301   0.0000
    29 H5'1        29.9177    -5.8688   -28.1079 H            1 GDP301   0.0000
    30 H5'2        29.1579    -4.5279   -27.5682 H            1 GDP301   0.0000
    31 H4'         27.6407    -6.0064   -28.7211 H            1 GDP301   0.0000
    32 H3'         27.1470    -4.8001   -26.3580 H            1 GDP301   0.0000
    33 H5          24.8827    -5.8040   -27.3304 H            1 GDP301   0.0000
    34 H2'         27.0318    -6.6515   -25.0703 H            1 GDP301   0.0000
    35 H7          24.9430    -6.1573   -24.7548 H            1 GDP301   0.0000
    36 H1'         26.1136    -8.2870   -27.2420 H            1 GDP301   0.0000
    37 H9          28.4169    -8.0471   -24.3155 H            1 GDP301   0.0000
    38 H10         26.7216   -14.1187   -25.7718 H            1 GDP301   0.0000
    39 H11         25.1437   -12.5789   -28.4835 H            1 GDP301   0.0000
    40 H12         25.4825   -14.0779   -27.6847 H            1 GDP301   0.0000
@<TRIPOS>BOND
     1    1    2      ar
     2    1    3      ar
     3    1    4      ar
     4    1    5       1
     5    5    6       1
     6    6    7      ar
     7    6    8      ar
     8    6    9       1
     9    9   10       1
    10   10   11       1
    11   11   12       1
    12   11   13       1
    13   12   17       1
    14   13   14       1
    15   13   15       1
    16   15   16       1
    17   15   17       1
    18   17   18       1
    19   18   19       1
    20   18   28       1
    21   19   20       2
    22   20   21       1
    23   21   22       1
    24   21   28       2
    25   22   23       2
    26   22   24       1
    27   24   25       1
    28   25   26       1
    29   25   27       2
    30   27   28       1
    31   26   40       1
    32   26   39       1
    33   24   38       1
    34   10   29       1
    35   10   30       1
    36   11   31       1
    37   13   32       1
    38   14   33       1
    39   15   34       1
    40   16   35       1
    41   17   36       1
    42   19   37       1
@<TRIPOS>SUBSTRUCTURE
     1 GDP301      1 GROUP             4 A     GDP     0 **** GDP A 301
