@<TRIPOS>MOLECULE
1mxf_MTX_1_ligand
   54    56     1     0     0
SMALL
NO_CHARGES


@<TRIPOS>ATOM
     1 N1          16.9410    54.8040    30.4460 N.ar         1 MTX1278   1.0000
     2 C2          18.1640    54.9290    31.0390 C.ar         1 MTX1278   0.0000
     3 NA2         18.3490    55.8380    31.9870 N.pl3        1 MTX1278   0.0000
     4 N3          19.1310    53.9580    30.8500 N.ar         1 MTX1278   0.0000
     5 C4          18.9200    52.8540    30.0670 C.ar         1 MTX1278   0.0000
     6 NA4         19.8770    51.9400    29.9080 N.pl3        1 MTX1278   0.0000
     7 C4A         17.6640    52.6910    29.4400 C.ar         1 MTX1278   0.0000
     8 N5          17.4170    51.6080    28.6550 N.ar         1 MTX1278   0.0000
     9 C6          16.2110    51.4370    28.0030 C.ar         1 MTX1278   0.0000
    10 C7          15.1250    52.4570    28.2020 C.ar         1 MTX1278   0.0000
    11 N8          15.4260    53.6440    29.0750 N.ar         1 MTX1278   0.0000
    12 C8A         16.6600    53.7440    29.6570 C.ar         1 MTX1278   0.0000
    13 C9          15.9430    50.2020    27.1450 C.3          1 MTX1278   0.0000
    14 N10         17.1120    49.6450    26.4250 N.pl3        1 MTX1278   0.0000
    15 CM          17.4590    48.2910    26.8120 C.3          1 MTX1278   0.0000
    16 C11         18.1350    51.3020    22.6170 C.ar         1 MTX1278   0.0000
    17 C12         16.9150    51.6730    23.2260 C.ar         1 MTX1278   0.0000
    18 C13         16.5580    51.1230    24.4740 C.ar         1 MTX1278   0.0000
    19 C14         17.4150    50.1830    25.1220 C.ar         1 MTX1278   0.0000
    20 C15         18.6100    49.7970    24.4800 C.ar         1 MTX1278   0.0000
    21 C16         18.9460    50.3300    23.2230 C.ar         1 MTX1278   0.0000
    22 C           18.5510    51.8950    21.3180 C.2          1 MTX1278   0.0000
    23 O           19.1650    51.2530    20.4520 O.2          1 MTX1278   0.0000
    24 N           17.9640    53.0730    20.9910 N.am         1 MTX1278   0.0000
    25 CA          17.8600    53.7960    19.7130 C.3          1 MTX1278   0.0000
    26 CT          18.0010    55.3140    19.8830 C.2          1 MTX1278   0.0000
    27 O1          17.6090    55.8480    20.9460 O.co2        1 MTX1278   0.0000
    28 O2          18.5100    55.9620    18.9360 O.co2        1 MTX1278  -1.0000
    29 CB          16.5200    53.4660    19.0440 C.3          1 MTX1278   0.0000
    30 CG          16.4510    52.0840    18.3650 C.3          1 MTX1278   0.0000
    31 CD          15.3380    51.9370    17.3370 C.2          1 MTX1278   0.0000
    32 OE1         14.1500    51.9020    17.7280 O.co2        1 MTX1278   0.0000
    33 OE2         15.6460    51.8530    16.1270 O.co2        1 MTX1278  -1.0000
    34 HA21        19.2443    55.9311    32.4226 H            1 MTX1278   0.0000
    35 HA22        17.5932    56.4303    32.2661 H            1 MTX1278   0.0000
    36 HA41        19.7120    51.1379    29.3341 H            1 MTX1278   0.0000
    37 HA42        20.7600    52.0563    30.3627 H            1 MTX1278   0.0000
    38 H5          14.2307    52.3497    27.7676 H            1 MTX1278   0.0000
    39 H6          15.2525    50.4464    26.4643 H            1 MTX1278   0.0000
    40 H7          15.5827    49.4862    27.7432 H            1 MTX1278   0.0000
    41 HM1         18.2529    47.9869    26.2855 H            1 MTX1278   0.0000
    42 HM2         17.6776    48.2688    27.7876 H            1 MTX1278   0.0000
    43 HM3         16.6857    47.6837    26.6298 H            1 MTX1278   0.0000
    44 H11         16.3063    52.3242    22.7727 H            1 MTX1278   0.0000
    45 H12         15.6987    51.3931    24.9083 H            1 MTX1278   0.0000
    46 H13         19.2218    49.1405    24.9213 H            1 MTX1278   0.0000
    47 H14         19.7715    50.0132    22.7559 H            1 MTX1278   0.0000
    48 H15         17.5205    53.5352    21.7589 H            1 MTX1278   0.0000
    49 HA          18.5951    53.4789    19.1137 H            1 MTX1278   0.0000
    50 HB1         16.3412    54.1621    18.3486 H            1 MTX1278   0.0000
    51 HB2         15.8068    53.5032    19.7440 H            1 MTX1278   0.0000
    52 HG1         16.3123    51.3941    19.0755 H            1 MTX1278   0.0000
    53 HG2         17.3236    51.9185    17.9055 H            1 MTX1278   0.0000
    54 H21         16.2446    55.5055    30.5974 H            1 MTX1278   0.0000
@<TRIPOS>BOND
     1    1    2      ar
     2    1   12      ar
     3    2    3       1
     4    2    4      ar
     5    4    5      ar
     6    5    6       1
     7    5    7      ar
     8    7    8      ar
     9    7   12      ar
    10    8    9      ar
    11    9   10      ar
    12    9   13       1
    13   10   11      ar
    14   11   12      ar
    15   13   14       1
    16   14   15       1
    17   14   19       1
    18   16   17      ar
    19   16   21      ar
    20   16   22       1
    21   17   18      ar
    22   18   19      ar
    23   19   20      ar
    24   20   21      ar
    25   22   23       2
    26   22   24      am
    27   24   25       1
    28   25   26       1
    29   25   29       1
    30   26   27      ar
    31   26   28      ar
    32   29   30       1
    33   30   31       1
    34   31   32      ar
    35   31   33      ar
    36    3   34       1
    37    3   35       1
    38    6   36       1
    39    6   37       1
    40   10   38       1
    41   13   39       1
    42   13   40       1
    43   15   41       1
    44   15   42       1
    45   15   43       1
    46   17   44       1
    47   18   45       1
    48   20   46       1
    49   21   47       1
    50   24   48       1
    51   25   49       1
    52   30   53       1
    53   29   50       1
    54   29   51       1
    55   30   52       1
    56    1   54       1
@<TRIPOS>SUBSTRUCTURE
     1 MTX1278     1 GROUP             4 A     MTX     0 **** MTX A1278
