@<TRIPOS>MOLECULE
4xq6_FMN_2_ligand
   50    52     1     0     0
SMALL
NO_CHARGES


@<TRIPOS>ATOM
     1 N1          -7.2700    31.7130    55.9030 N.2          1 FMN402   0.0000
     2 C2          -8.4790    32.1260    56.3340 C.2          1 FMN402   0.0000
     3 O2          -9.0260    31.4950    57.2710 O.2          1 FMN402   0.0000
     4 N3          -9.0840    33.2160    55.8230 N.pl3        1 FMN402   0.0000
     5 C4          -8.5530    33.9360    54.8300 C.2          1 FMN402   0.0000
     6 O4          -9.1490    34.9310    54.3790 O.2          1 FMN402   0.0000
     7 C4A         -7.2390    33.5530    54.3000 C.2          1 FMN402   0.0000
     8 N5          -6.6140    34.2420    53.3070 N.2          1 FMN402   0.0000
     9 C5A         -5.4400    33.7990    52.7900 C.ar         1 FMN402   0.0000
    10 C6          -4.7930    34.5020    51.7450 C.ar         1 FMN402   0.0000
    11 C7          -3.5560    34.0600    51.2480 C.ar         1 FMN402   0.0000
    12 C7M         -2.8350    34.7820    50.1040 C.3          1 FMN402   0.0000
    13 C8          -2.9270    32.8340    51.8470 C.ar         1 FMN402   0.0000
    14 C8M         -1.6220    32.3040    51.3280 C.3          1 FMN402   0.0000
    15 C9          -3.5690    32.1570    52.8750 C.ar         1 FMN402   0.0000
    16 C9A         -4.8010    32.5810    53.3700 C.ar         1 FMN402   0.0000
    17 N10         -5.4520    31.8650    54.4130 N.pl3        1 FMN402   0.0000
    18 C10         -6.6450    32.3490    54.9030 C.2          1 FMN402   0.0000
    19 C1'         -4.8750    30.6770    55.0510 C.3          1 FMN402   0.0000
    20 C2'         -5.0260    29.4080    54.2880 C.3          1 FMN402   0.0000
    21 O2'         -6.4290    29.0970    54.3040 O.3          1 FMN402   0.0000
    22 C3'         -4.2160    28.2630    54.8950 C.3          1 FMN402   0.0000
    23 O3'         -4.7270    28.0310    56.2150 O.3          1 FMN402   0.0000
    24 C4'         -2.7290    28.5040    54.9810 C.3          1 FMN402   0.0000
    25 O4'         -2.3180    29.2060    53.8110 O.3          1 FMN402   0.0000
    26 C5'         -1.9640    27.1680    55.0880 C.3          1 FMN402   0.0000
    27 O5'         -2.1780    26.3060    53.9540 O.3          1 FMN402   0.0000
    28 P           -1.2450    26.2120    52.6560 P.3          1 FMN402   0.0000
    29 O1P         -1.3740    27.5240    51.9170 O.co2        1 FMN402   0.0000
    30 O2P          0.1260    25.9120    53.3050 O.co2        1 FMN402  -1.0000
    31 O3P         -1.7380    25.0790    51.8990 O.co2        1 FMN402  -1.0000
    32 H1          -9.9656    33.4976    56.2018 H            1 FMN402   0.0000
    33 H2          -5.2200    35.3193    51.3580 H            1 FMN402   0.0000
    34 H7M1        -1.9761    34.3114    49.9017 H            1 FMN402   0.0000
    35 H7M2        -3.4159    34.7801    49.2900 H            1 FMN402   0.0000
    36 H7M3        -2.6426    35.7254    50.3740 H            1 FMN402   0.0000
    37 H8M1        -1.3634    31.4889    51.8464 H            1 FMN402   0.0000
    38 H8M2        -1.7192    32.0673    50.3613 H            1 FMN402   0.0000
    39 H8M3        -0.9140    33.0028    51.4305 H            1 FMN402   0.0000
    40 H9          -3.1373    31.3459    53.2697 H            1 FMN402   0.0000
    41 H1'1        -5.3180    30.5577    55.9395 H            1 FMN402   0.0000
    42 H1'2        -3.8979    30.8423    55.1852 H            1 FMN402   0.0000
    43 H2'         -4.7320    29.5547    53.3435 H            1 FMN402   0.0000
    44 H13         -6.8726    29.5171    53.5124 H            1 FMN402   0.0000
    45 H3'         -4.3715    27.4410    54.3471 H            1 FMN402   0.0000
    46 H15         -4.2175    27.2847    56.6433 H            1 FMN402   0.0000
    47 H4'         -2.5316    29.0623    55.7868 H            1 FMN402   0.0000
    48 H17         -2.0636    28.5498    53.1006 H            1 FMN402   0.0000
    49 H5'1        -2.2684    26.6914    55.9128 H            1 FMN402   0.0000
    50 H5'2        -0.9862    27.3652    55.1586 H            1 FMN402   0.0000
@<TRIPOS>BOND
     1    1    2       1
     2    1   18       2
     3    2    3       2
     4    2    4       1
     5    4    5       1
     6    5    6       2
     7    5    7       1
     8    7    8       2
     9    7   18       1
    10    8    9       1
    11    9   10      ar
    12    9   16      ar
    13   10   11      ar
    14   11   12       1
    15   11   13      ar
    16   13   14       1
    17   13   15      ar
    18   15   16      ar
    19   16   17       1
    20   17   18       1
    21   17   19       1
    22   19   20       1
    23   20   21       1
    24   20   22       1
    25   22   23       1
    26   22   24       1
    27   24   25       1
    28   24   26       1
    29   26   27       1
    30   27   28       1
    31   28   29      ar
    32   28   30      ar
    33   28   31      ar
    34    4   32       1
    35   10   33       1
    36   12   34       1
    37   12   35       1
    38   12   36       1
    39   14   37       1
    40   14   38       1
    41   14   39       1
    42   15   40       1
    43   19   41       1
    44   19   42       1
    45   20   43       1
    46   21   44       1
    47   22   45       1
    48   23   46       1
    49   24   47       1
    50   25   48       1
    51   26   49       1
    52   26   50       1
@<TRIPOS>SUBSTRUCTURE
     1 FMN402      1 GROUP             4 B     FMN     0 **** FMN B 402
