@<TRIPOS>MOLECULE
3stu_DK3_1_ligand
   42    41     1     0     0
SMALL
NO_CHARGES


@<TRIPOS>ATOM
     1 C12        -31.4340    -0.5480    12.3300 C.3          1 DK3266   0.0000
     2 C13        -36.0780    -6.0190     0.9950 C.3          1 DK3266   0.0000
     3 C11        -30.9990    -0.3380    10.8950 C.3          1 DK3266   0.0000
     4 O3         -38.5990    -4.6770     6.2000 O.3          1 DK3266   0.0000
     5 C3         -37.8410    -4.0090     5.1820 C.3          1 DK3266   0.0000
     6 C2         -37.0270    -5.0410     4.3950 C.3          1 DK3266   0.0000
     7 C1         -37.1350    -4.7610     2.9170 C.2          1 DK3266   0.0000
     8 O1         -37.1200    -5.8650     1.9600 O.3          1 DK3266   0.0000
     9 O2         -37.2490    -3.6130     2.5230 O.2          1 DK3266   0.0000
    10 C4         -36.9750    -2.8970     5.7960 C.3          1 DK3266   0.0000
    11 C5         -35.5290    -3.2920     6.0980 C.3          1 DK3266   0.0000
    12 C6         -35.0670    -2.7520     7.4470 C.3          1 DK3266   0.0000
    13 C7         -33.6200    -3.1520     7.7280 C.3          1 DK3266   0.0000
    14 C8         -33.1720    -2.6960     9.1140 C.3          1 DK3266   0.0000
    15 C9         -32.2010    -1.5210     9.0330 C.3          1 DK3266   0.0000
    16 C10        -31.1110    -1.6300    10.0930 C.3          1 DK3266   0.0000
    17 H1         -31.3511     0.3124    12.8328 H            1 DK3266   0.0000
    18 H2         -32.3857    -0.8544    12.3484 H            1 DK3266   0.0000
    19 H3         -30.8525    -1.2407    12.7566 H            1 DK3266   0.0000
    20 H4         -36.2548    -6.8321     0.4404 H            1 DK3266   0.0000
    21 H5         -36.0488    -5.2126     0.4044 H            1 DK3266   0.0000
    22 H6         -35.2010    -6.1201     1.4647 H            1 DK3266   0.0000
    23 H7         -30.0483    -0.0280    10.8839 H            1 DK3266   0.0000
    24 H8         -31.5815     0.3583    10.4757 H            1 DK3266   0.0000
    25 H9         -38.3322    -4.3270     7.0980 H            1 DK3266   0.0000
    26 H10        -38.4869    -3.5810     4.5498 H            1 DK3266   0.0000
    27 H11        -37.3800    -5.9570     4.5856 H            1 DK3266   0.0000
    28 H12        -36.0679    -4.9888     4.6731 H            1 DK3266   0.0000
    29 H13        -37.4027    -2.6089     6.6528 H            1 DK3266   0.0000
    30 H14        -36.9589    -2.1283     5.1565 H            1 DK3266   0.0000
    31 H15        -34.9362    -2.9243     5.3815 H            1 DK3266   0.0000
    32 H16        -35.4608    -4.2896     6.1077 H            1 DK3266   0.0000
    33 H17        -35.6546    -3.1223     8.1665 H            1 DK3266   0.0000
    34 H18        -35.1356    -1.7544     7.4411 H            1 DK3266   0.0000
    35 H19        -33.0275    -2.7320     7.0406 H            1 DK3266   0.0000
    36 H20        -33.5415    -4.1474     7.6724 H            1 DK3266   0.0000
    37 H21        -32.7201    -3.4590     9.5762 H            1 DK3266   0.0000
    38 H22        -33.9759    -2.4169     9.6393 H            1 DK3266   0.0000
    39 H23        -32.7071    -0.6699     9.1724 H            1 DK3266   0.0000
    40 H24        -31.7757    -1.5116     8.1280 H            1 DK3266   0.0000
    41 H25        -31.3322    -2.3822    10.7137 H            1 DK3266   0.0000
    42 H26        -30.2361    -1.8139     9.6449 H            1 DK3266   0.0000
@<TRIPOS>BOND
     1    1    3       1
     2    2    8       1
     3    3   16       1
     4    4    5       1
     5    5    6       1
     6    5   10       1
     7    6    7       1
     8    7    8       1
     9    7    9       2
    10   10   11       1
    11   11   12       1
    12   12   13       1
    13   13   14       1
    14   14   15       1
    15   15   16       1
    16    1   17       1
    17    1   18       1
    18    1   19       1
    19    2   20       1
    20    2   21       1
    21    2   22       1
    22    3   23       1
    23    3   24       1
    24    4   25       1
    25    5   26       1
    26    6   27       1
    27    6   28       1
    28   10   29       1
    29   10   30       1
    30   11   31       1
    31   11   32       1
    32   12   33       1
    33   12   34       1
    34   13   35       1
    35   13   36       1
    36   14   37       1
    37   14   38       1
    38   15   39       1
    39   15   40       1
    40   16   41       1
    41   16   42       1
@<TRIPOS>SUBSTRUCTURE
     1 DK3266      1 GROUP             4 B     DK3     0 **** DK3 B 266
