@<TRIPOS>MOLECULE
3hq8_IMD_1_ligand
    9     9     1     0     0
SMALL
NO_CHARGES


@<TRIPOS>ATOM
     1 N1          32.4160    -2.9470    24.9810 N.2          1 IMD346   0.0000
     2 C2          33.0630    -4.1160    25.1380 C.2          1 IMD346   0.0000
     3 N3          34.4010    -3.9060    25.0940 N.pl3        1 IMD346   0.0000
     4 C4          34.6150    -2.5850    24.9180 C.2          1 IMD346   0.0000
     5 C5          33.3750    -1.9800    24.8440 C.2          1 IMD346   0.0000
     6 H1          32.6234    -5.0048    25.2675 H            1 IMD346   0.0000
     7 H2          35.5032    -2.1301    24.8534 H            1 IMD346   0.0000
     8 H3          33.2070    -1.0030    24.7128 H            1 IMD346   0.0000
     9 H4          35.1078    -4.6085    25.1775 H            1 IMD346   0.0000
@<TRIPOS>BOND
     1    1    2       2
     2    1    5       1
     3    2    3       1
     4    3    4       1
     5    4    5       2
     6    5    8       1
     7    2    6       1
     8    4    7       1
     9    3    9       1
@<TRIPOS>SUBSTRUCTURE
     1 IMD346      1 GROUP             4 A     IMD     0 **** IMD A 346
