@<TRIPOS>MOLECULE
3zdu_38R_1_ligand
   48    51     1     0     0
SMALL
NO_CHARGES


@<TRIPOS>ATOM
     1 C4          27.8070    21.0070    59.0230 C.ar         1 38R350   0.0000
     2 C5          28.6710    21.2220    57.9420 C.ar         1 38R350   0.0000
     3 C6          28.7790    20.2590    56.9440 C.ar         1 38R350   0.0000
     4 N1          28.0660    19.1200    57.0440 N.ar         1 38R350   0.0000
     5 N3          27.0900    19.8440    59.0640 N.ar         1 38R350   0.0000
     6 C1U         24.1760    19.8670    64.3520 C.3          1 38R350   0.0000
     7 C1T         23.9630    20.8110    63.2330 C.3          1 38R350   0.0000
     8 C1R         25.1060    21.5210    62.5700 C.2          1 38R350   0.0000
     9 C1S         25.7430    21.1400    61.3950 C.2          1 38R350   0.0000
    10 N1Q         25.7660    22.5710    63.0380 N.pl3        1 38R350   0.0000
    11 N1P         26.7840    22.9080    62.1750 N.2          1 38R350   0.0000
    12 C1H         26.7840    22.0300    61.1430 C.2          1 38R350   0.0000
    13 N1G         27.7090    22.0350    60.0260 N.pl3        1 38R350   0.0000
    14 C1Y         22.3890    18.9690    63.0370 C.3          1 38R350   0.0000
    15 C2          27.2530    18.8990    58.0940 C.ar         1 38R350   0.0000
    16 N1I         26.5240    17.6680    58.0520 N.pl3        1 38R350   0.0000
    17 C1J         25.9280    16.9810    59.1480 C.ar         1 38R350   0.0000
    18 C1K         26.3710    17.0730    60.4620 C.ar         1 38R350   0.0000
    19 C1L         25.7210    16.3440    61.4500 C.ar         1 38R350   0.0000
    20 C1O         24.8650    16.1430    58.8070 C.ar         1 38R350   0.0000
    21 C1N         24.2190    15.3870    59.7600 C.ar         1 38R350   0.0000
    22 C1M         24.6540    15.5000    61.1010 C.ar         1 38R350   0.0000
    23 C1V         23.9770    14.6630    62.1210 C.3          1 38R350   0.0000
    24 C01         23.4410    18.6340    64.0440 C.3          1 38R350   0.0000
    25 C1Z         23.0650    15.2470    63.1070 C.1          1 38R350   0.0000
    26 C03         22.6950    20.3760    62.5860 C.3          1 38R350   0.0000
    27 N1A         22.3390    15.6410    63.8830 N.1          1 38R350   0.0000
    28 H1          29.2078    22.0639    57.8878 H            1 38R350   0.0000
    29 H2          29.3803    20.4106    56.1595 H            1 38R350   0.0000
    30 H1U1        23.8323    20.2646    65.2028 H            1 38R350   0.0000
    31 H1U2        25.1511    19.6670    64.4476 H            1 38R350   0.0000
    32 H1T         23.6005    21.5801    63.7594 H            1 38R350   0.0000
    33 H1S         25.4949    20.3567    60.8250 H            1 38R350   0.0000
    34 H1G         28.3288    22.8157    59.9461 H            1 38R350   0.0000
    35 H1Y1        21.4807    18.9252    63.4529 H            1 38R350   0.0000
    36 H1Y2        22.4321    18.3370    62.2633 H            1 38R350   0.0000
    37 H1I         26.4217    17.2428    57.1527 H            1 38R350   0.0000
    38 H1K         27.1488    17.6573    60.6937 H            1 38R350   0.0000
    39 H1L         26.0111    16.4197    62.4040 H            1 38R350   0.0000
    40 H1O         24.5672    16.0906    57.8538 H            1 38R350   0.0000
    41 H1N         23.4662    14.7775    59.5116 H            1 38R350   0.0000
    42 H1V1        24.7015    14.2099    62.6404 H            1 38R350   0.0000
    43 H1V2        23.4488    13.9783    61.6188 H            1 38R350   0.0000
    44 H17         23.0150    18.2754    64.8746 H            1 38R350   0.0000
    45 H18         24.0663    17.9501    63.6681 H            1 38R350   0.0000
    46 H19         22.7987    20.3970    61.5916 H            1 38R350   0.0000
    47 H20         21.9509    20.9868    62.8565 H            1 38R350   0.0000
    48 H1Q         25.5555    23.0476    63.8915 H            1 38R350   0.0000
@<TRIPOS>BOND
     1    1    2      ar
     2    1    5      ar
     3    1   13       1
     4    2    3      ar
     5    3    4      ar
     6    4   15      ar
     7    5   15      ar
     8    6    7       1
     9    6   24       1
    10    7    8       1
    11    7   26       1
    12    8    9       2
    13    8   10       1
    14    9   12       1
    15   10   11       1
    16   11   12       2
    17   12   13       1
    18   14   24       1
    19   14   26       1
    20   15   16       1
    21   16   17       1
    22   17   18      ar
    23   17   20      ar
    24   18   19      ar
    25   19   22      ar
    26   20   21      ar
    27   21   22      ar
    28   22   23       1
    29   23   25       1
    30   25   27       3
    31    2   28       1
    32    3   29       1
    33    6   30       1
    34    6   31       1
    35    7   32       1
    36    9   33       1
    37   26   47       1
    38   13   34       1
    39   14   35       1
    40   14   36       1
    41   16   37       1
    42   18   38       1
    43   19   39       1
    44   20   40       1
    45   21   41       1
    46   23   42       1
    47   23   43       1
    48   24   44       1
    49   24   45       1
    50   26   46       1
    51   10   48       1
@<TRIPOS>SUBSTRUCTURE
     1 38R350      1 GROUP             4 A     38R     0 **** 38R A 350
