@<TRIPOS>MOLECULE
5a65_TPP_2_ligand
   42    43     1     0     0
SMALL
NO_CHARGES


@<TRIPOS>ATOM
     1 N1'         41.0980    13.4900     5.8410 N.ar         1 TPP1000   0.0000
     2 C2'         42.2810    12.8220     5.8890 C.ar         1 TPP1000   0.0000
     3 CM2         42.5980    12.0080     7.1220 C.3          1 TPP1000   0.0000
     4 N3'         43.1650    12.8650     4.8420 N.ar         1 TPP1000   0.0000
     5 C4'         42.9030    13.5770     3.7210 C.ar         1 TPP1000   0.0000
     6 N4'         43.8140    13.5880     2.7100 N.pl3        1 TPP1000   0.0000
     7 C5'         41.6160    14.3320     3.7020 C.ar         1 TPP1000   0.0000
     8 C6'         40.7500    14.2240     4.7850 C.ar         1 TPP1000   0.0000
     9 C7'         41.0840    15.1280     2.5550 C.3          1 TPP1000   0.0000
    10 N3          39.8500    14.3730     2.3110 N.2          1 TPP1000   1.0000
    11 C2          39.7940    13.0180     2.4310 C.2          1 TPP1000   0.0000
    12 S1          38.2690    12.2480     2.1600 S.3          1 TPP1000   0.0000
    13 C5          37.6360    13.8330     1.8440 C.2          1 TPP1000   0.0000
    14 C4          38.6490    14.9050     1.9920 C.2          1 TPP1000   0.0000
    15 CM4         38.2970    16.3520     1.7570 C.3          1 TPP1000   0.0000
    16 C6          36.1780    13.8650     1.4740 C.3          1 TPP1000   0.0000
    17 C7          35.2970    13.3790     2.6100 C.3          1 TPP1000   0.0000
    18 O7          35.3700    14.3400     3.6300 O.3          1 TPP1000   0.0000
    19 PA          34.5410    14.2410     4.9860 P.3          1 TPP1000   0.0000
    20 O1A         34.6720    12.8480     5.5460 O.co2        1 TPP1000   0.0000
    21 O2A         35.0860    15.4330     5.7280 O.co2        1 TPP1000  -1.0000
    22 O3A         32.9860    14.5080     4.6000 O.3          1 TPP1000   0.0000
    23 PB          31.7190    14.1780     5.5660 P.3          1 TPP1000   0.0000
    24 O1B         31.4740    12.7010     5.4250 O.co2        1 TPP1000   0.0000
    25 O2B         32.0920    14.5880     6.9720 O.co2        1 TPP1000  -1.0000
    26 O3B         30.6200    15.0120     4.9880 O.co2        1 TPP1000  -1.0000
    27 HM21        43.4938    11.5766     7.0154 H            1 TPP1000   0.0000
    28 HM22        42.6096    12.6068     7.9228 H            1 TPP1000   0.0000
    29 HM23        41.9004    11.3020     7.2438 H            1 TPP1000   0.0000
    30 H4'1        43.6306    14.1106     1.8774 H            1 TPP1000   0.0000
    31 H4'2        44.6667    13.0734     2.7997 H            1 TPP1000   0.0000
    32 H6'         39.8685    14.6960     4.7711 H            1 TPP1000   0.0000
    33 H7'1        41.6988    15.1080     1.7666 H            1 TPP1000   0.0000
    34 H7'2        40.8995    16.0772     2.8099 H            1 TPP1000   0.0000
    35 H9          40.6069    12.4859     2.6678 H            1 TPP1000   0.0000
    36 HM41        37.3242    16.4270     1.5376 H            1 TPP1000   0.0000
    37 HM42        38.4944    16.8813     2.5821 H            1 TPP1000   0.0000
    38 HM43        38.8388    16.7074     0.9954 H            1 TPP1000   0.0000
    39 H13         36.0332    13.2773     0.6780 H            1 TPP1000   0.0000
    40 H14         35.9226    14.8045     1.2456 H            1 TPP1000   0.0000
    41 H15         35.6264    12.4966     2.9460 H            1 TPP1000   0.0000
    42 H16         34.3526    13.2843     2.2951 H            1 TPP1000   0.0000
@<TRIPOS>BOND
     1    1    2      ar
     2    1    8      ar
     3    2    3       1
     4    2    4      ar
     5    4    5      ar
     6    5    6       1
     7    5    7      ar
     8    7    8      ar
     9    7    9       1
    10    9   10       1
    11   10   11       2
    12   10   14       1
    13   11   12       1
    14   12   13       1
    15   13   14       2
    16   13   16       1
    17   14   15       1
    18   16   17       1
    19   17   18       1
    20   18   19       1
    21   19   20      ar
    22   19   21      ar
    23   19   22       1
    24   22   23       1
    25   23   24      ar
    26   23   25      ar
    27   23   26      ar
    28    3   27       1
    29    3   28       1
    30    3   29       1
    31    6   30       1
    32    6   31       1
    33    8   32       1
    34    9   33       1
    35    9   34       1
    36   11   35       1
    37   15   36       1
    38   15   37       1
    39   15   38       1
    40   16   39       1
    41   16   40       1
    42   17   41       1
    43   17   42       1
@<TRIPOS>SUBSTRUCTURE
     1 TPP1000     1 GROUP             4 B     TPP     0 **** TPP B1000
