@<TRIPOS>MOLECULE
4dvg_GSP_1_ligand
   44    46     1     0     0
SMALL
NO_CHARGES


@<TRIPOS>ATOM
     1 PG          43.4240    52.4830    10.0860 P.3          1 GSP200   0.0000
     2 O3B         42.7260    53.9210     9.8490 O.3          1 GSP200   0.0000
     3 S1G         42.7730    51.3350     8.9880 S.2          1 GSP200   0.0000
     4 O2G         44.9470    52.6240     9.8670 O.co2        1 GSP200  -1.0000
     5 O3G         43.1580    52.0490    11.5390 O.co2        1 GSP200  -1.0000
     6 PB          43.2170    55.2840    10.5600 P.3          1 GSP200   0.0000
     7 O1B         42.5250    55.5060    11.8370 O.co2        1 GSP200   0.0000
     8 O2B         44.6880    55.3460    10.7630 O.co2        1 GSP200  -1.0000
     9 PA          43.7740    57.4450     8.8500 P.3          1 GSP200   0.0000
    10 O1A         44.4460    58.2200     9.9160 O.co2        1 GSP200   0.0000
    11 O2A         44.7660    56.8170     7.9560 O.co2        1 GSP200  -1.0000
    12 O3A         42.7330    56.3830     9.5010 O.3          1 GSP200   0.0000
    13 O5'         42.7030    58.3170     8.0490 O.3          1 GSP200   0.0000
    14 C5'         41.5800    57.6530     7.5020 C.3          1 GSP200   0.0000
    15 C4'         41.0940    58.4800     6.3200 C.3          1 GSP200   0.0000
    16 O4'         40.3120    59.5620     6.8060 O.3          1 GSP200   0.0000
    17 C3'         42.2590    59.0690     5.5300 C.3          1 GSP200   0.0000
    18 O3'         42.0460    58.8800     4.1530 O.3          1 GSP200   0.0000
    19 C2'         42.2350    60.5500     5.8280 C.3          1 GSP200   0.0000
    20 O2'         42.2760    61.2830     4.6320 O.3          1 GSP200   0.0000
    21 C1'         40.8920    60.8110     6.4780 C.3          1 GSP200   0.0000
    22 N9          41.0980    61.6450     7.6780 N.pl3        1 GSP200   0.0000
    23 C8          41.9260    61.3840     8.7260 C.2          1 GSP200   0.0000
    24 N7          41.8010    62.4190     9.5790 N.2          1 GSP200   0.0000
    25 C5          40.9290    63.3240     9.1110 C.2          1 GSP200   0.0000
    26 C6          40.4500    64.5360     9.5770 C.2          1 GSP200   0.0000
    27 O6          40.8250    64.9920    10.6550 O.2          1 GSP200   0.0000
    28 N1          39.5380    65.2400     8.8300 N.pl3        1 GSP200   0.0000
    29 C2          39.0960    64.7410     7.6240 C.2          1 GSP200   0.0000
    30 N2          38.1950    65.4060     6.8830 N.pl3        1 GSP200   0.0000
    31 N3          39.5840    63.5350     7.1850 N.2          1 GSP200   0.0000
    32 C4          40.4810    62.8380     7.9120 C.2          1 GSP200   0.0000
    33 H5'1        40.8571    57.5811     8.1892 H            1 GSP200   0.0000
    34 H5'2        41.8402    56.7376     7.1948 H            1 GSP200   0.0000
    35 H4'         40.5366    57.9081     5.7181 H            1 GSP200   0.0000
    36 H3'         43.1263    58.6615     5.8161 H            1 GSP200   0.0000
    37 H5          42.0154    59.7686     3.6954 H            1 GSP200   0.0000
    38 H2'         42.9862    60.8081     6.4355 H            1 GSP200   0.0000
    39 H7          43.0886    61.8658     4.6259 H            1 GSP200   0.0000
    40 H1'         40.2990    61.2946     5.8343 H            1 GSP200   0.0000
    41 H9          42.5119    60.5817     8.8403 H            1 GSP200   0.0000
    42 H10         39.1934    66.1179     9.1623 H            1 GSP200   0.0000
    43 H11         37.8872    65.0265     6.0105 H            1 GSP200   0.0000
    44 H12         37.8318    66.2808     7.2037 H            1 GSP200   0.0000
@<TRIPOS>BOND
     1    1    2       1
     2    1    3       2
     3    1    4      ar
     4    1    5      ar
     5    2    6       1
     6    6    7      ar
     7    6    8      ar
     8    6   12       1
     9    9   10      ar
    10    9   11      ar
    11    9   12       1
    12    9   13       1
    13   13   14       1
    14   14   15       1
    15   15   16       1
    16   15   17       1
    17   16   21       1
    18   17   18       1
    19   17   19       1
    20   19   20       1
    21   19   21       1
    22   21   22       1
    23   22   23       1
    24   22   32       1
    25   23   24       2
    26   24   25       1
    27   25   26       1
    28   25   32       2
    29   26   27       2
    30   26   28       1
    31   28   29       1
    32   29   30       1
    33   29   31       2
    34   31   32       1
    35   30   44       1
    36   30   43       1
    37   28   42       1
    38   23   41       1
    39   14   33       1
    40   14   34       1
    41   15   35       1
    42   17   36       1
    43   18   37       1
    44   19   38       1
    45   20   39       1
    46   21   40       1
@<TRIPOS>SUBSTRUCTURE
     1 GSP200      1 GROUP             4 A     GSP     0 **** GSP A 200
