@<TRIPOS>MOLECULE
1pzo_CBT_2_ligand
   34    36     1     0     0
SMALL
NO_CHARGES


@<TRIPOS>ATOM
     1 CL3          8.6060    14.6090    25.5300 Cl           1 CBT301   0.0000
     2 C29          7.3350    14.4880    24.7380 C.ar         1 CBT301   0.0000
     3 C28          7.3620    14.4540    23.3210 C.ar         1 CBT301   0.0000
     4 C26          6.1900    14.5330    22.5640 C.ar         1 CBT301   0.0000
     5 C27          6.0980    14.5660    25.4290 C.ar         1 CBT301   0.0000
     6 C25          4.9420    14.6160    24.6570 C.ar         1 CBT301   0.0000
     7 C22          4.9610    14.5970    23.2420 C.ar         1 CBT301   0.0000
     8 C17          3.5920    14.4990    22.5240 C.3          1 CBT301   0.0000
     9 N13          3.4870    14.7410    21.0780 N.pl3        1 CBT301   0.0000
    10 C16          3.7900    15.9310    20.5620 C.2          1 CBT301   0.0000
    11 N18          3.7640    16.1870    19.2420 N.2          1 CBT301   0.0000
    12 N20          4.1910    17.5130    19.0670 N.2          1 CBT301   0.0000
    13 N21          4.4800    18.0390    20.3300 N.2          1 CBT301   0.0000
    14 N19          4.2140    17.0110    21.2570 N.pl3        1 CBT301  -1.0000
    15 C1           2.9200    13.6890    20.1560 C.3          1 CBT301   0.0000
    16 C2           3.0700    12.1730    20.5550 C.ar         1 CBT301   0.0000
    17 C3           4.2860    11.6070    20.9370 C.ar         1 CBT301   0.0000
    18 C5           4.3810    10.2090    21.1850 C.ar         1 CBT301   0.0000
    19 C7           3.2520     9.3560    21.0510 C.ar         1 CBT301   0.0000
    20 CL8          3.4320     7.8370    21.2100 Cl           1 CBT301   0.0000
    21 C6           2.0080     9.9050    20.6630 C.ar         1 CBT301   0.0000
    22 C4           1.9450    11.2960    20.4530 C.ar         1 CBT301   0.0000
    23 H1           8.2412    14.3715    22.8517 H            1 CBT301   0.0000
    24 H2           6.2251    14.5437    21.5647 H            1 CBT301   0.0000
    25 H3           6.0590    14.5842    26.4281 H            1 CBT301   0.0000
    26 H4           4.0584    14.6677    25.1224 H            1 CBT301   0.0000
    27 H5           2.9874    15.1594    22.9693 H            1 CBT301   0.0000
    28 H6           3.2502    13.5731    22.6847 H            1 CBT301   0.0000
    29 H7           3.3651    13.8050    19.2681 H            1 CBT301   0.0000
    30 H8           1.9415    13.8739    20.0650 H            1 CBT301   0.0000
    31 H9           5.0950    12.1863    21.0371 H            1 CBT301   0.0000
    32 H10          5.2600     9.8188    21.4591 H            1 CBT301   0.0000
    33 H11          1.2017     9.3260    20.5420 H            1 CBT301   0.0000
    34 H12          1.0588    11.6953    20.2180 H            1 CBT301   0.0000
@<TRIPOS>BOND
     1    1    2       1
     2    2    3      ar
     3    2    5      ar
     4    3    4      ar
     5    4    7      ar
     6    5    6      ar
     7    6    7      ar
     8    7    8       1
     9    8    9       1
    10    9   10       1
    11    9   15       1
    12   10   11       2
    13   10   14       1
    14   11   12       1
    15   12   13       2
    16   13   14       1
    17   15   16       1
    18   16   17      ar
    19   16   22      ar
    20   17   18      ar
    21   18   19      ar
    22   19   20       1
    23   19   21      ar
    24   21   22      ar
    25    3   23       1
    26    4   24       1
    27    5   25       1
    28    6   26       1
    29    8   27       1
    30    8   28       1
    31   22   34       1
    32   15   29       1
    33   15   30       1
    34   17   31       1
    35   18   32       1
    36   21   33       1
@<TRIPOS>SUBSTRUCTURE
     1 CBT301      1 GROUP             4 A     CBT     0 **** CBT A 301
