@<TRIPOS>MOLECULE
1z41_FMN_2_ligand
   50    52     1     0     0
SMALL
NO_CHARGES


@<TRIPOS>ATOM
     1 N1          -6.3600    21.6120    22.0030 N.2          1 FMN1501   0.0000
     2 C2          -5.7820    20.9230    20.9940 C.2          1 FMN1501   0.0000
     3 O2          -5.2990    19.8480    21.1280 O.2          1 FMN1501   0.0000
     4 N3          -5.7320    21.5500    19.7030 N.pl3        1 FMN1501   0.0000
     5 C4          -6.2820    22.7710    19.3960 C.2          1 FMN1501   0.0000
     6 O4          -6.1730    23.2560    18.2720 O.2          1 FMN1501   0.0000
     7 C4A         -6.9660    23.4740    20.4860 C.2          1 FMN1501   0.0000
     8 N5          -7.5680    24.6700    20.2860 N.2          1 FMN1501   0.0000
     9 C5A         -7.9300    25.4200    21.3810 C.ar         1 FMN1501   0.0000
    10 C6          -8.3760    26.8070    21.2210 C.ar         1 FMN1501   0.0000
    11 C7          -8.7010    27.6100    22.2990 C.ar         1 FMN1501   0.0000
    12 C7M         -9.1390    29.0550    22.1250 C.3          1 FMN1501   0.0000
    13 C8          -8.5920    27.0550    23.6770 C.ar         1 FMN1501   0.0000
    14 C8M         -8.9010    27.8830    24.9030 C.3          1 FMN1501   0.0000
    15 C9          -8.1850    25.7320    23.8260 C.ar         1 FMN1501   0.0000
    16 C9A         -7.8530    24.8900    22.7480 C.ar         1 FMN1501   0.0000
    17 N10         -7.4100    23.5500    22.8680 N.pl3        1 FMN1501   0.0000
    18 C10         -6.9120    22.8140    21.7930 C.2          1 FMN1501   0.0000
    19 C1'         -7.2360    22.9280    24.2060 C.3          1 FMN1501   0.0000
    20 C2'         -5.9340    23.4830    24.8390 C.3          1 FMN1501   0.0000
    21 O2'         -4.7150    23.1560    24.1240 O.3          1 FMN1501   0.0000
    22 C3'         -5.6710    23.0250    26.2600 C.3          1 FMN1501   0.0000
    23 O3'         -5.4120    21.5920    26.2520 O.3          1 FMN1501   0.0000
    24 C4'         -6.8510    23.3020    27.1820 C.3          1 FMN1501   0.0000
    25 O4'         -7.2730    24.6880    27.0880 O.3          1 FMN1501   0.0000
    26 C5'         -6.4570    22.9340    28.6340 C.3          1 FMN1501   0.0000
    27 O5'         -5.3470    23.7740    29.1130 O.3          1 FMN1501   0.0000
    28 P           -5.3840    25.2030    29.7900 P.3          1 FMN1501   0.0000
    29 O1P         -6.2210    25.0780    31.0340 O.co2        1 FMN1501   0.0000
    30 O2P         -5.9640    26.1650    28.8050 O.co2        1 FMN1501  -1.0000
    31 O3P         -3.8740    25.5150    30.1020 O.co2        1 FMN1501  -1.0000
    32 H1          -5.2600    21.0596    18.9703 H            1 FMN1501   0.0000
    33 H2          -8.4479    27.1865    20.2986 H            1 FMN1501   0.0000
    34 H7M1        -9.3264    29.4567    23.0214 H            1 FMN1501   0.0000
    35 H7M2        -8.4115    29.5718    21.6736 H            1 FMN1501   0.0000
    36 H7M3        -9.9672    29.0872    21.5655 H            1 FMN1501   0.0000
    37 H8M1        -8.7668    27.3270    25.7233 H            1 FMN1501   0.0000
    38 H8M2        -8.2905    28.6745    24.9333 H            1 FMN1501   0.0000
    39 H8M3        -9.8501    28.1954    24.8637 H            1 FMN1501   0.0000
    40 H9          -8.1251    25.3586    24.7517 H            1 FMN1501   0.0000
    41 H1'1        -7.1682    21.9349    24.1104 H            1 FMN1501   0.0000
    42 H1'2        -8.0173    23.1543    24.7877 H            1 FMN1501   0.0000
    43 H2'         -6.0118    24.4798    24.8562 H            1 FMN1501   0.0000
    44 H13         -4.7627    23.5272    23.1967 H            1 FMN1501   0.0000
    45 H3'         -4.8643    23.5000    26.6115 H            1 FMN1501   0.0000
    46 H15         -4.7923    21.3611    27.0021 H            1 FMN1501   0.0000
    47 H4'         -7.6142    22.7190    26.9035 H            1 FMN1501   0.0000
    48 H17         -6.7740    25.2347    27.7604 H            1 FMN1501   0.0000
    49 H5'1        -6.1761    21.9747    28.6627 H            1 FMN1501   0.0000
    50 H5'2        -7.2483    23.0676    29.2306 H            1 FMN1501   0.0000
@<TRIPOS>BOND
     1    1    2       1
     2    1   18       2
     3    2    3       2
     4    2    4       1
     5    4    5       1
     6    5    6       2
     7    5    7       1
     8    7    8       2
     9    7   18       1
    10    8    9       1
    11    9   10      ar
    12    9   16      ar
    13   10   11      ar
    14   11   12       1
    15   11   13      ar
    16   13   14       1
    17   13   15      ar
    18   15   16      ar
    19   16   17       1
    20   17   18       1
    21   17   19       1
    22   19   20       1
    23   20   21       1
    24   20   22       1
    25   22   23       1
    26   22   24       1
    27   24   25       1
    28   24   26       1
    29   26   27       1
    30   27   28       1
    31   28   29      ar
    32   28   30      ar
    33   28   31      ar
    34    4   32       1
    35   10   33       1
    36   12   34       1
    37   12   35       1
    38   12   36       1
    39   14   37       1
    40   14   38       1
    41   14   39       1
    42   15   40       1
    43   19   41       1
    44   19   42       1
    45   20   43       1
    46   21   44       1
    47   22   45       1
    48   23   46       1
    49   24   47       1
    50   25   48       1
    51   26   49       1
    52   26   50       1
@<TRIPOS>SUBSTRUCTURE
     1 FMN1501     1 GROUP             4 B     FMN     0 **** FMN B1501
