@<TRIPOS>MOLECULE
3wbg_2AN_3_ligand
   33    35     1     0     0
SMALL
NO_CHARGES


@<TRIPOS>ATOM
     1 C1          37.1680     5.8210    50.6000 C.ar         1 2AN201   0.0000
     2 C2          36.1470     6.5510    51.2060 C.ar         1 2AN201   0.0000
     3 C3          36.0990     6.6840    52.5830 C.ar         1 2AN201   0.0000
     4 C4          37.0610     6.0570    53.3800 C.ar         1 2AN201   0.0000
     5 C5          38.0910     5.3320    52.7990 C.ar         1 2AN201   0.0000
     6 C6          39.0470     4.7560    53.6520 C.ar         1 2AN201   0.0000
     7 C7          40.0920     3.9910    53.1370 C.ar         1 2AN201   0.0000
     8 C8          40.1940     3.8300    51.7650 C.ar         1 2AN201   0.0000
     9 N           37.1950     5.7380    49.2400 N.pl3        1 2AN201   0.0000
    10 S           39.5230     4.0850    49.3740 S.o2         1 2AN201   0.0000
    11 C9          39.2690     4.3970    50.9180 C.ar         1 2AN201   0.0000
    12 C10         38.1780     5.1700    51.4080 C.ar         1 2AN201   0.0000
    13 C11         36.3460     6.1580    48.2550 C.ar         1 2AN201   0.0000
    14 C12         35.0580     5.6260    48.0950 C.ar         1 2AN201   0.0000
    15 C13         34.2320     6.0360    47.0410 C.ar         1 2AN201   0.0000
    16 C14         34.7000     6.9640    46.1170 C.ar         1 2AN201   0.0000
    17 C15         35.9940     7.4720    46.2570 C.ar         1 2AN201   0.0000
    18 C16         36.8090     7.0640    47.3060 C.ar         1 2AN201   0.0000
    19 O1          38.2730     3.4750    48.8670 O.co2        1 2AN201   0.0000
    20 O2          39.8510     5.3380    48.6720 O.co2        1 2AN201   0.0000
    21 O3          40.5660     3.0740    49.0920 O.co2        1 2AN201  -1.0000
    22 H1          35.4433     6.9823    50.6413 H            1 2AN201   0.0000
    23 H2          35.3759     7.2288    53.0077 H            1 2AN201   0.0000
    24 H3          37.0063     6.1316    54.3757 H            1 2AN201   0.0000
    25 H4          38.9770     4.8964    54.6396 H            1 2AN201   0.0000
    26 H5          40.7582     3.5647    53.7489 H            1 2AN201   0.0000
    27 H6          40.9489     3.2953    51.3852 H            1 2AN201   0.0000
    28 H7          38.0070     5.2716    48.8890 H            1 2AN201   0.0000
    29 H8          34.7241     4.9427    48.7443 H            1 2AN201   0.0000
    30 H9          33.3085     5.6626    46.9531 H            1 2AN201   0.0000
    31 H10         34.1175     7.2640    45.3616 H            1 2AN201   0.0000
    32 H11         36.3378     8.1373    45.5943 H            1 2AN201   0.0000
    33 H12         37.7384     7.4255    47.3796 H            1 2AN201   0.0000
@<TRIPOS>BOND
     1    1    2      ar
     2    1    9       1
     3    1   12      ar
     4    2    3      ar
     5    3    4      ar
     6    4    5      ar
     7    5    6      ar
     8    5   12      ar
     9    6    7      ar
    10    7    8      ar
    11    8   11      ar
    12    9   13       1
    13   10   11       1
    14   10   19      ar
    15   10   20      ar
    16   10   21      ar
    17   11   12      ar
    18   13   14      ar
    19   13   18      ar
    20   14   15      ar
    21   15   16      ar
    22   16   17      ar
    23   17   18      ar
    24    2   22       1
    25    3   23       1
    26    4   24       1
    27    6   25       1
    28    7   26       1
    29    8   27       1
    30    9   28       1
    31   14   29       1
    32   15   30       1
    33   16   31       1
    34   17   32       1
    35   18   33       1
@<TRIPOS>SUBSTRUCTURE
     1 2AN201      1 GROUP             4 C     2AN     0 **** 2AN C 201
