@<TRIPOS>MOLECULE
4mcd_22L_1_ligand
   24    26     1     0     0
SMALL
NO_CHARGES


@<TRIPOS>ATOM
     1 C1          20.6850    62.0290    71.4880 C.ar         1 22L301   0.0000
     2 C2          21.5100    63.0740    71.8720 C.ar         1 22L301   0.0000
     3 C3          21.8990    64.0440    70.9590 C.ar         1 22L301   0.0000
     4 C7          21.8630    65.0880    68.7180 C.2          1 22L301   0.0000
     5 C8          23.1260    65.6340    68.8310 C.2          1 22L301   0.0000
     6 C10         21.8300    66.7910    67.0840 C.2          1 22L301   0.0000
     7 C11         21.1190    65.7770    67.6920 C.2          1 22L301   0.0000
     8 C12         19.7580    65.5820    67.2240 C.2          1 22L301   0.0000
     9 C15         20.2320    67.4400    65.6960 C.2          1 22L301   0.0000
    10 C4          21.4820    64.0100    69.6330 C.ar         1 22L301   0.0000
    11 C5          20.6680    62.9620    69.2640 C.ar         1 22L301   0.0000
    12 C6          20.2810    61.9830    70.1640 C.ar         1 22L301   0.0000
    13 S9          23.4100    66.9280    67.7330 S.3          1 22L301   0.0000
    14 O13         18.9750    64.7410    67.6550 O.2          1 22L301   0.0000
    15 N14         19.4070    66.4630    66.2140 N.pl3        1 22L301   0.0000
    16 N16         21.4500    67.6390    66.0980 N.2          1 22L301   0.0000
    17 H1          20.3918    61.3329    72.1434 H            1 22L301   0.0000
    18 H2          21.8288    63.1298    72.8182 H            1 22L301   0.0000
    19 H3          22.4951    64.7872    71.2628 H            1 22L301   0.0000
    20 H4          23.8083    65.3095    69.4862 H            1 22L301   0.0000
    21 H5          19.8718    68.0271    64.9710 H            1 22L301   0.0000
    22 H6          20.3470    62.9063    68.3186 H            1 22L301   0.0000
    23 H7          19.7004    61.2306    69.8528 H            1 22L301   0.0000
    24 H8          18.4863    66.3849    65.8316 H            1 22L301   0.0000
@<TRIPOS>BOND
     1    1    2      ar
     2    1   12      ar
     3    2    3      ar
     4    3   10      ar
     5    4    5       2
     6    4    7       1
     7    4   10       1
     8    5   13       1
     9    6    7       2
    10    6   13       1
    11    6   16       1
    12    7    8       1
    13    8   14       2
    14    8   15       1
    15    9   15       1
    16    9   16       2
    17   10   11      ar
    18   11   12      ar
    19    1   17       1
    20    2   18       1
    21    3   19       1
    22    5   20       1
    23    9   21       1
    24   11   22       1
    25   12   23       1
    26   15   24       1
@<TRIPOS>SUBSTRUCTURE
     1 22L301      1 GROUP             4 A     22L     0 **** 22L A 301
