@<TRIPOS>MOLECULE
4i1i_NAD_1_ligand
   70    74     1     0     0
SMALL
NO_CHARGES


@<TRIPOS>ATOM
     1 PA          -9.6610    31.7280    70.1290 P.3          1 NAD400   0.0000
     2 O1A         -9.9710    33.1130    69.5590 O.co2        1 NAD400   0.0000
     3 O2A        -10.2240    31.3360    71.4810 O.co2        1 NAD400  -1.0000
     4 O5B         -8.0920    31.5300    70.2100 O.3          1 NAD400   0.0000
     5 C5B         -7.2440    31.9780    69.1600 C.3          1 NAD400   0.0000
     6 C4B         -6.0120    32.5140    69.8600 C.3          1 NAD400   0.0000
     7 O4B         -5.0480    32.7720    68.8230 O.3          1 NAD400   0.0000
     8 C3B         -6.1970    33.8300    70.6170 C.3          1 NAD400   0.0000
     9 O3B         -5.8140    33.6460    71.9970 O.3          1 NAD400   0.0000
    10 C2B         -5.2990    34.7770    69.8600 C.3          1 NAD400   0.0000
    11 O2B         -4.7380    35.8380    70.6460 O.3          1 NAD400   0.0000
    12 C1B         -4.2540    33.8380    69.2630 C.3          1 NAD400   0.0000
    13 N9A         -3.4270    34.4330    68.2400 N.pl3        1 NAD400   0.0000
    14 C8A         -3.6890    35.4860    67.4020 C.2          1 NAD400   0.0000
    15 N7A         -2.5850    35.7780    66.6740 N.2          1 NAD400   0.0000
    16 C5A         -1.6070    34.9600    67.0940 C.ar         1 NAD400   0.0000
    17 C6A         -0.1960    34.7670    66.7720 C.ar         1 NAD400   0.0000
    18 N6A          0.3810    35.6420    65.8840 N.pl3        1 NAD400   0.0000
    19 N1A          0.4900    33.7850    67.4160 N.ar         1 NAD400   0.0000
    20 C2A         -0.1170    32.9650    68.3000 C.ar         1 NAD400   0.0000
    21 N3A         -1.3980    33.1150    68.7070 N.ar         1 NAD400   0.0000
    22 C4A         -2.1530    34.0690    68.1040 C.ar         1 NAD400   0.0000
    23 O3         -10.1080    30.6690    68.9990 O.3          1 NAD400   0.0000
    24 PN         -10.3680    29.0950    69.1360 P.3          1 NAD400   0.0000
    25 O1N        -11.8530    28.8690    69.2930 O.co2        1 NAD400   0.0000
    26 O2N         -9.4040    28.5350    70.1020 O.co2        1 NAD400  -1.0000
    27 O5D        -10.0200    28.6720    67.6470 O.3          1 NAD400   0.0000
    28 C5D         -8.6450    28.8040    67.1430 C.3          1 NAD400   0.0000
    29 C4D         -8.6100    28.7180    65.6360 C.3          1 NAD400   0.0000
    30 O4D         -8.9680    27.3850    65.2000 O.3          1 NAD400   0.0000
    31 C3D         -9.5920    29.6110    64.9410 C.3          1 NAD400   0.0000
    32 O3D         -9.0330    30.1170    63.7010 O.3          1 NAD400   0.0000
    33 C2D        -10.7930    28.7240    64.6540 C.3          1 NAD400   0.0000
    34 O2D        -11.6380    29.1170    63.5740 O.3          1 NAD400   0.0000
    35 C1D        -10.0450    27.4680    64.2540 C.3          1 NAD400   0.0000
    36 N1N        -10.7500    26.2070    64.3000 N.ar         1 NAD400   1.0000
    37 C2N        -10.3600    25.2360    63.4200 C.ar         1 NAD400   0.0000
    38 C3N        -10.9530    23.9990    63.4710 C.ar         1 NAD400   0.0000
    39 C7N        -10.5090    22.9590    62.4910 C.2          1 NAD400   0.0000
    40 O7N        -11.0852    21.8124    62.3161 O.2          1 NAD400   0.0000
    41 N7N         -9.4054    23.2905    61.8884 N.am         1 NAD400   0.0000
    42 C4N        -11.9480    23.7420    64.4380 C.ar         1 NAD400   0.0000
    43 C5N        -12.2590    24.6880    65.3290 C.ar         1 NAD400   0.0000
    44 C6N        -11.6750    25.9740    65.2640 C.ar         1 NAD400   0.0000
    45 H5B1        -7.6901    32.6994    68.6303 H            1 NAD400   0.0000
    46 H5B2        -7.0031    31.2199    68.5540 H            1 NAD400   0.0000
    47 H4B         -5.6535    31.8187    70.4829 H            1 NAD400   0.0000
    48 H3B         -7.1482    34.1329    70.5586 H            1 NAD400   0.0000
    49 H5          -4.8550    33.3662    72.0423 H            1 NAD400   0.0000
    50 H2B         -5.8249    35.1816    69.1119 H            1 NAD400   0.0000
    51 H7          -3.8641    35.5413    71.0311 H            1 NAD400   0.0000
    52 H1B         -3.6624    33.5109    69.9999 H            1 NAD400   0.0000
    53 H8A         -4.5638    35.9662    67.3380 H            1 NAD400   0.0000
    54 H6A1         1.3453    35.5421    65.6386 H            1 NAD400   0.0000
    55 H6A2        -0.1632    36.3789    65.4830 H            1 NAD400   0.0000
    56 H2A          0.4107    32.2030    68.6754 H            1 NAD400   0.0000
    57 H5D1        -8.0847    28.0693    67.5255 H            1 NAD400   0.0000
    58 H5D2        -8.2756    29.6883    67.4287 H            1 NAD400   0.0000
    59 H4D         -7.6871    28.9319    65.3158 H            1 NAD400   0.0000
    60 H3D         -9.8550    30.3689    65.5380 H            1 NAD400   0.0000
    61 H17         -9.7012    30.7100    63.2517 H            1 NAD400   0.0000
    62 H2D        -11.3273    28.5697    65.4851 H            1 NAD400   0.0000
    63 H19        -12.5746    28.8187    63.7580 H            1 NAD400   0.0000
    64 H1D         -9.6641    27.5943    63.3380 H            1 NAD400   0.0000
    65 H2N         -9.6479    25.4256    62.7440 H            1 NAD400   0.0000
    66 H7N1        -8.9297    22.6242    61.3142 H            1 NAD400   0.0000
    67 H7N2        -9.0324    24.2116    61.9993 H            1 NAD400   0.0000
    68 H4N        -12.4167    22.8588    64.4563 H            1 NAD400   0.0000
    69 H5N        -12.9161    24.4829    66.0543 H            1 NAD400   0.0000
    70 H6N        -11.9365    26.6910    65.9102 H            1 NAD400   0.0000
@<TRIPOS>BOND
     1    1    2      ar
     2    1    3      ar
     3    1    4       1
     4    1   23       1
     5    4    5       1
     6    5    6       1
     7    6    7       1
     8    6    8       1
     9    7   12       1
    10    8    9       1
    11    8   10       1
    12   10   11       1
    13   10   12       1
    14   12   13       1
    15   13   14       1
    16   13   22       1
    17   14   15       2
    18   15   16       1
    19   16   17      ar
    20   16   22      ar
    21   17   18       1
    22   17   19      ar
    23   19   20      ar
    24   20   21      ar
    25   21   22      ar
    26   23   24       1
    27   24   25      ar
    28   24   26      ar
    29   24   27       1
    30   27   28       1
    31   28   29       1
    32   29   30       1
    33   29   31       1
    34   30   35       1
    35   31   32       1
    36   31   33       1
    37   33   34       1
    38   33   35       1
    39   35   36       1
    40   36   37      ar
    41   36   44      ar
    42   37   38      ar
    43   38   39       1
    44   38   42      ar
    45   39   40       2
    46   39   41      am
    47   42   43      ar
    48   43   44      ar
    49   44   70       1
    50    5   45       1
    51    5   46       1
    52    6   47       1
    53    8   48       1
    54    9   49       1
    55   10   50       1
    56   11   51       1
    57   12   52       1
    58   14   53       1
    59   18   54       1
    60   18   55       1
    61   20   56       1
    62   43   69       1
    63   28   57       1
    64   28   58       1
    65   29   59       1
    66   31   60       1
    67   32   61       1
    68   33   62       1
    69   34   63       1
    70   35   64       1
    71   37   65       1
    72   41   66       1
    73   41   67       1
    74   42   68       1
@<TRIPOS>SUBSTRUCTURE
     1 NAD400      1 GROUP             4 A     NAD     0 **** NAD A 400
