@<TRIPOS>MOLECULE
3slz_3TL_1_ligand
  130   133     1     0     0
SMALL
NO_CHARGES


@<TRIPOS>ATOM
     1 C31         -0.2550     2.4820    18.3190 C.2          1 3TL126   0.0000
     2 O8          -1.0730     3.3600    18.5020 O.2          1 3TL126   0.0000
     3 O9           0.0500     1.7380    19.3960 O.3          1 3TL126   0.0000
     4 CA          -0.9680     1.0670    20.1750 C.3          1 3TL126   0.0000
     5 C           -0.4040     0.4340    21.4100 C.ar         1 3TL126   0.0000
     6 C13         -1.2590    -0.0130    22.4110 C.ar         1 3TL126   0.0000
     7 C14         -0.7130    -0.5990    23.5680 C.ar         1 3TL126   0.0000
     8 C15          0.6680    -0.7450    23.7420 C.ar         1 3TL126   0.0000
     9 C16          1.5270    -0.2950    22.7370 C.ar         1 3TL126   0.0000
    10 C17          0.9690     0.2810    21.6000 C.ar         1 3TL126   0.0000
    11 N4           0.5480     2.3680    17.2720 N.am         1 3TL126   0.0000
    12 C18          0.3560     3.0440    16.1390 C.3          1 3TL126   0.0000
    13 C19         -0.4840     2.2110    15.2050 C.2          1 3TL126   0.0000
    14 O4          -0.0090     1.0670    14.8120 O.2          1 3TL126   0.0000
    15 C20          1.7230     3.1960    15.5350 C.3          1 3TL126   0.0000
    16 N2          -1.6290     2.6680    14.8370 N.am         1 3TL126   0.0000
    17 C10         -2.6200     2.0030    14.0030 C.3          1 3TL126   0.0000
    18 C11         -2.8020     2.8180    12.7660 C.2          1 3TL126   0.0000
    19 O2          -3.7160     3.7240    12.8370 O.2          1 3TL126   0.0000
    20 C12         -3.8750     1.7020    14.8000 C.3          1 3TL126   0.0000
    21 CG2         -3.6120     0.8800    16.0800 C.3          1 3TL126   0.0000
    22 CG1         -4.9240     0.9990    13.9240 C.3          1 3TL126   0.0000
    23 C2          -2.5730     2.5420     9.2430 C.3          1 3TL126   0.0000
    24 O1          -1.3820     1.8160     9.0230 O.3          1 3TL126   0.0000
    25 C1          -2.3370     3.4280    10.4230 C.3          1 3TL126   0.0000
    26 N1          -2.1430     2.5900    11.6460 N.am         1 3TL126   0.0000
    27 C3          -1.1450     4.3200    10.0210 C.3          1 3TL126   0.0000
    28 C4          -0.4240     4.8260    11.2020 C.ar         1 3TL126   0.0000
    29 C5          -1.0050     5.8930    11.8920 C.ar         1 3TL126   0.0000
    30 C9           0.7870     4.2420    11.5920 C.ar         1 3TL126   0.0000
    31 C6          -0.3800     6.3930    13.0200 C.ar         1 3TL126   0.0000
    32 C8           1.4170     4.7580    12.7210 C.ar         1 3TL126   0.0000
    33 C7           0.8190     5.8140    13.4270 C.ar         1 3TL126   0.0000
    34 N51         -5.3210     2.9830     7.9450 N.am         1 3TL126   0.0000
    35 C51         -5.0700     2.3090     9.2130 C.3          1 3TL126   0.0000
    36 C52         -3.7230     1.6320     9.3650 C.3          1 3TL126   0.0000
    37 O51         -3.4440     0.6710     8.3610 O.3          1 3TL126   0.0000
    38 C53         -6.0450     1.1750     9.3810 C.3          1 3TL126   0.0000
    39 C54         -7.3820     1.7230     9.2080 C.ar         1 3TL126   0.0000
    40 C55         -8.1450     1.3010     8.1320 C.ar         1 3TL126   0.0000
    41 C59         -7.8590     2.6990    10.0900 C.ar         1 3TL126   0.0000
    42 C56         -9.4200     1.8540     7.9720 C.ar         1 3TL126   0.0000
    43 C58         -9.1280     3.2640     9.9250 C.ar         1 3TL126   0.0000
    44 C57         -9.9090     2.8350     8.8440 C.ar         1 3TL126   0.0000
    45 N52         -7.2350     5.0720     6.1030 N.am         1 3TL126   0.0000
    46 C60         -5.8480     4.7220     6.3240 C.3          1 3TL126   0.0000
    47 C61         -5.6370     4.1850     7.7340 C.2          1 3TL126   0.0000
    48 O52         -5.7200     5.0450     8.7340 O.2          1 3TL126   0.0000
    49 C62         -4.9740     5.9340     5.9810 C.3          1 3TL126   0.0000
    50 CG6         -3.5090     5.8440     6.4320 C.3          1 3TL126   0.0000
    51 CG5         -5.0840     6.4920     4.5340 C.3          1 3TL126   0.0000
    52 N54         -9.4700     5.3860     3.6890 N.am         1 3TL126   0.0000
    53 C68         -9.3530     4.8900     4.8280 C.3          1 3TL126   0.0000
    54 C69         -7.9350     4.6360     5.1350 C.2          1 3TL126   0.0000
    55 O54         -7.3420     3.7820     4.3130 O.2          1 3TL126   0.0000
    56 C70        -10.3410     3.7560     5.0940 C.3          1 3TL126   0.0000
    57 C81         -9.5620     6.6620     3.4000 C.2          1 3TL126   0.0000
    58 O58         -9.3970     7.5160     4.2920 O.2          1 3TL126   0.0000
    59 O59         -9.5390     7.0090     2.1430 O.3          1 3TL126   0.0000
    60 CA5         -8.5930     8.0030     1.6590 C.3          1 3TL126   0.0000
    61 C50         -8.6220     8.2800     0.1840 C.ar         1 3TL126   0.0000
    62 C63         -9.4490     9.2540    -0.3950 C.ar         1 3TL126   0.0000
    63 C64         -9.4460     9.4570    -1.7800 C.ar         1 3TL126   0.0000
    64 C65         -8.6140     8.6670    -2.5860 C.ar         1 3TL126   0.0000
    65 C66         -7.7980     7.6840    -2.0240 C.ar         1 3TL126   0.0000
    66 C67         -7.8080     7.5020    -0.6420 C.ar         1 3TL126   0.0000
    67 HA1         -1.3894     0.3563    19.6117 H            1 3TL126   0.0000
    68 HA2         -1.6621     1.7352    20.4429 H            1 3TL126   0.0000
    69 H3          -2.2495     0.0807    22.3101 H            1 3TL126   0.0000
    70 H4          -1.3296    -0.9204    24.2867 H            1 3TL126   0.0000
    71 H5           1.0338    -1.1648    24.5726 H            1 3TL126   0.0000
    72 H6           2.5184    -0.3845    22.8322 H            1 3TL126   0.0000
    73 H7           1.5852     0.6023    20.8809 H            1 3TL126   0.0000
    74 H8           1.3310     1.7491    17.3338 H            1 3TL126   0.0000
    75 H9          -0.0662     3.9337    16.3129 H            1 3TL126   0.0000
    76 H10          1.6528     3.6992    14.6737 H            1 3TL126   0.0000
    77 H11          2.3128     3.6983    16.1673 H            1 3TL126   0.0000
    78 H12          2.1134     2.2918    15.3619 H            1 3TL126   0.0000
    79 H13         -1.8652     3.5842    15.1606 H            1 3TL126   0.0000
    80 H14         -2.2300     1.1255    13.7238 H            1 3TL126   0.0000
    81 H15         -4.2640     2.5783    15.0842 H            1 3TL126   0.0000
    82 HG21        -4.4766     0.7177    16.5554 H            1 3TL126   0.0000
    83 HG22        -3.1972     0.0039    15.8342 H            1 3TL126   0.0000
    84 HG23        -2.9918     1.3859    16.6795 H            1 3TL126   0.0000
    85 HG11        -5.7411     0.8106    14.4688 H            1 3TL126   0.0000
    86 HG12        -5.1655     1.5899    13.1543 H            1 3TL126   0.0000
    87 HG13        -4.5479     0.1391    13.5789 H            1 3TL126   0.0000
    88 H22         -2.7275     3.1266     8.4465 H            1 3TL126   0.0000
    89 H23         -1.0334     2.0170     8.1075 H            1 3TL126   0.0000
    90 H24         -3.1412     4.0074    10.5552 H            1 3TL126   0.0000
    91 H25         -1.4921     1.8315    11.6140 H            1 3TL126   0.0000
    92 H26         -1.4851     5.0968     9.4910 H            1 3TL126   0.0000
    93 H27         -0.5136     3.7846     9.4601 H            1 3TL126   0.0000
    94 H28         -1.8649     6.2916    11.5732 H            1 3TL126   0.0000
    95 H29          1.1850     3.4819    11.0783 H            1 3TL126   0.0000
    96 H30         -0.7803     7.1532    13.5317 H            1 3TL126   0.0000
    97 H31          2.2902     4.3788    13.0273 H            1 3TL126   0.0000
    98 H32          1.2692     6.1618    14.2494 H            1 3TL126   0.0000
    99 H33         -5.2298     2.4124     7.1289 H            1 3TL126   0.0000
   100 H34         -5.1947     2.9613     9.9607 H            1 3TL126   0.0000
   101 H35         -3.6863     1.1844    10.2585 H            1 3TL126   0.0000
   102 H36         -3.3621    -0.2337     8.7791 H            1 3TL126   0.0000
   103 H37         -5.9537     0.7779    10.2942 H            1 3TL126   0.0000
   104 H38         -5.8723     0.4707     8.6924 H            1 3TL126   0.0000
   105 H39         -7.7947     0.6208     7.4881 H            1 3TL126   0.0000
   106 H40         -7.2831     2.9976    10.8510 H            1 3TL126   0.0000
   107 H41         -9.9962     1.5414     7.2168 H            1 3TL126   0.0000
   108 H42         -9.4686     3.9557    10.5618 H            1 3TL126   0.0000
   109 H43        -10.8158     3.2292     8.6949 H            1 3TL126   0.0000
   110 H44         -7.6701     5.6958     6.7523 H            1 3TL126   0.0000
   111 H45         -5.6150     3.9901     5.6836 H            1 3TL126   0.0000
   112 H46         -5.3518     6.6667     6.5471 H            1 3TL126   0.0000
   113 HG61        -3.0258     6.6773     6.1635 H            1 3TL126   0.0000
   114 HG62        -3.4719     5.7429     7.4262 H            1 3TL126   0.0000
   115 HG63        -3.0752     5.0532     6.0001 H            1 3TL126   0.0000
   116 HG51        -4.4714     7.2757     4.4315 H            1 3TL126   0.0000
   117 HG52        -4.8258     5.7796     3.8815 H            1 3TL126   0.0000
   118 HG53        -6.0255     6.7796     4.3583 H            1 3TL126   0.0000
   119 H53         -9.4962     4.7471     2.9201 H            1 3TL126   0.0000
   120 H54         -9.6248     5.6199     5.4552 H            1 3TL126   0.0000
   121 H55        -10.1995     3.4004     6.0179 H            1 3TL126   0.0000
   122 H56        -11.2756     4.1015     5.0093 H            1 3TL126   0.0000
   123 H57        -10.1948     3.0237     4.4290 H            1 3TL126   0.0000
   124 HA51        -7.6730     7.6883     1.8926 H            1 3TL126   0.0000
   125 HA52        -8.7823     8.8619     2.1348 H            1 3TL126   0.0000
   126 H60        -10.0454     9.8076     0.1862 H            1 3TL126   0.0000
   127 H61        -10.0305    10.1573    -2.1898 H            1 3TL126   0.0000
   128 H62         -8.6052     8.8096    -3.5757 H            1 3TL126   0.0000
   129 H63         -7.2137     7.1176    -2.6052 H            1 3TL126   0.0000
   130 H64         -7.2217     6.8017    -0.2347 H            1 3TL126   0.0000
@<TRIPOS>BOND
     1    1    2       2
     2    1    3       1
     3    1   11      am
     4    3    4       1
     5    4    5       1
     6    5    6      ar
     7    5   10      ar
     8    6    7      ar
     9    7    8      ar
    10    8    9      ar
    11    9   10      ar
    12   11   12       1
    13   12   13       1
    14   12   15       1
    15   13   14       2
    16   13   16      am
    17   16   17       1
    18   17   18       1
    19   17   20       1
    20   18   19       2
    21   18   26      am
    22   20   21       1
    23   20   22       1
    24   23   24       1
    25   23   25       1
    26   23   36       1
    27   25   26       1
    28   25   27       1
    29   27   28       1
    30   28   29      ar
    31   28   30      ar
    32   29   31      ar
    33   30   32      ar
    34   31   33      ar
    35   32   33      ar
    36   34   35       1
    37   34   47      am
    38   35   36       1
    39   35   38       1
    40   36   37       1
    41   38   39       1
    42   39   40      ar
    43   39   41      ar
    44   40   42      ar
    45   41   43      ar
    46   42   44      ar
    47   43   44      ar
    48   45   46       1
    49   45   54      am
    50   46   47       1
    51   46   49       1
    52   47   48       2
    53   49   50       1
    54   49   51       1
    55   52   53       1
    56   52   57      am
    57   53   54       1
    58   53   56       1
    59   54   55       2
    60   57   58       2
    61   57   59       1
    62   59   60       1
    63   60   61       1
    64   61   62      ar
    65   61   66      ar
    66   62   63      ar
    67   63   64      ar
    68   64   65      ar
    69   65   66      ar
    70    4   67       1
    71    4   68       1
    72    6   69       1
    73    7   70       1
    74    8   71       1
    75    9   72       1
    76   10   73       1
    77   11   74       1
    78   12   75       1
    79   15   76       1
    80   15   77       1
    81   15   78       1
    82   16   79       1
    83   17   80       1
    84   20   81       1
    85   21   82       1
    86   21   83       1
    87   21   84       1
    88   22   85       1
    89   22   86       1
    90   22   87       1
    91   23   88       1
    92   24   89       1
    93   25   90       1
    94   26   91       1
    95   27   92       1
    96   27   93       1
    97   29   94       1
    98   30   95       1
    99   31   96       1
   100   32   97       1
   101   33   98       1
   102   34   99       1
   103   35  100       1
   104   36  101       1
   105   37  102       1
   106   38  103       1
   107   38  104       1
   108   40  105       1
   109   41  106       1
   110   42  107       1
   111   43  108       1
   112   44  109       1
   113   45  110       1
   114   46  111       1
   115   49  112       1
   116   50  113       1
   117   50  114       1
   118   50  115       1
   119   51  116       1
   120   51  117       1
   121   51  118       1
   122   52  119       1
   123   53  120       1
   124   56  121       1
   125   56  122       1
   126   56  123       1
   127   60  124       1
   128   60  125       1
   129   62  126       1
   130   63  127       1
   131   64  128       1
   132   65  129       1
   133   66  130       1
@<TRIPOS>SUBSTRUCTURE
     1 3TL126      1 GROUP             4 A     3TL     0 **** 3TL A 126
