@<TRIPOS>MOLECULE
./coach420/1ex8/ligand.pdb
 48 51 0 0 0
SMALL
GASTEIGER

@<TRIPOS>ATOM
      1 MG          3.6080   19.5520   20.8000 Mg    161  MG161       0.0000
      2  C8R       -3.0080   16.6490   21.6610 C.3   171  A4P171      0.0000
      3  N7R       -3.4210   16.9220   20.4500 N.pl3 171  A4P171      0.0000
      4  C5R       -2.3380   16.4400   19.6670 C.ar  171  A4P171      0.0000
      5  C6R       -2.2440   16.4790   18.2430 C.ar  171  A4P171      0.0000
      6  N6R       -3.0750   16.9340   17.4080 N.pl3 171  A4P171      0.0000
      7  N1R       -1.0140   15.9120   17.6700 N.ar  171  A4P171      0.0000
      8  C1R       -1.2500   15.5810   23.0850 C.3   171  A4P171      0.0000
      9  C2R       -0.1020   15.4180   18.4980 C.ar  171  A4P171      0.0000
     10  N3R       -0.1220   15.3450   19.8910 N.ar  171  A4P171      0.0000
     11  C4R       -1.3120   15.8940   20.4340 C.ar  171  A4P171      0.0000
     12  O5'        2.3380   17.0560   23.4850 O.3   171  A4P171      0.0000
     13  C5'        1.6790   16.7480   24.7970 C.3   171  A4P171      0.0000
     14  C4'        0.5240   15.8640   24.4950 C.3   171  A4P171      0.0000
     15  O4'       -0.3830   16.5520   23.6040 O.3   171  A4P171      0.0000
     16  C3'        0.8110   14.6060   23.7740 C.3   171  A4P171      0.0000
     17  O3'        1.3240   13.6040   24.6130 O.3   171  A4P171      0.0000
     18  C2'       -0.5260   14.2430   23.1430 C.3   171  A4P171      0.0000
     19  O2'       -1.2610   13.3050   23.9740 O.3   171  A4P171      0.0000
     20  PA         3.7310   17.8470   23.4590 P.3   171  A4P171      0.0000
     21  O1A        3.9010   18.2160   22.0280 O.3   171  A4P171      0.0000
     22  O2A        4.8890   17.0530   24.0220 O.2   171  A4P171      0.0000
     23  O3A        3.5030   19.0320   24.4170 O.3   171  A4P171      0.0000
     24  PB         2.8520   20.4420   23.8710 P.3   171  A4P171      0.0000
     25  O1B        1.8550   21.0080   24.8500 O.3   171  A4P171     -0.5000
     26  O2B        2.4680   20.3340   22.4200 O.2   171  A4P171     -0.5000
     27  O3B        4.1320   21.4660   23.9990 O.3   171  A4P171      0.0000
     28  PG         5.0020   21.8470   22.8690 P.3   171  A4P171      0.0000
     29  O1G        5.1370   20.6910   21.8740 O.2   171  A4P171     -0.5000
     30  O2G        6.2980   22.3010   23.4610 O.3   171  A4P171     -0.5000
     31  O3G        4.2720   23.0140   22.1020 O.3   171  A4P171      0.0000
     32  PD         3.6820   22.8740   20.6100 P.3   171  A4P171      0.0000
     33  O1D        2.5470   23.8750   20.5950 O.2   171  A4P171      0.0000
     34  O2D        3.0600   21.4940   20.5880 O.3   171  A4P171      0.0000
     35  O3D        4.7040   22.9970   19.5230 O.3   171  A4P171      0.0000
     36  N1         8.2990   26.8220   16.1330 N.2   171  A4P171      0.0000
     37  C2         8.4940   26.5050   14.8620 C.2   171  A4P171      0.0000
     38  N2         9.0220   27.3200   13.9810 N.pl3 171  A4P171      0.0000
     39  N3         8.1040   25.2110   14.4510 N.am  171  A4P171      0.0000
     40  C4         7.5350   24.2300   15.2420 C.2   171  A4P171      0.0000
     41  O4         7.2480   23.1100   14.6830 O.2   171  A4P171      0.0000
     42  N5         6.7560   23.7080   17.5800 N.2   171  A4P171      0.0000
     43  C6         6.6010   24.1460   18.8770 C.2   171  A4P171      0.0000
     44  C6A        6.0120   23.2660   19.9040 C.3   171  A4P171      0.0000
     45  C7         7.0160   25.5340   19.3350 C.2   171  A4P171      0.0000
     46  N8         7.5430   26.2680   18.3330 N.2   171  A4P171      0.0000
     47  C9         7.7490   25.9570   17.0270 C.2   171  A4P171      0.0000
     48  C10        7.3260   24.5910   16.6350 C.3   171  A4P171      0.0000
@<TRIPOS>BOND
     1     1    34    1
     2     1    21    1
     3     2     3    1
     4     3     4    1
     5     4     5   ar
     6     4    11   ar
     7     5     6    1
     8     5     7   ar
     9     7     9   ar
    10     8    18    1
    11     8    15    1
    12     9    10   ar
    13    10    11   ar
    14    12    20    1
    15    12    13    1
    16    13    14    1
    17    14    15    1
    18    14    16    1
    19    16    18    1
    20    16    17    1
    21    18    19    1
    22    20    21    1
    23    20    22    2
    24    20    23    1
    25    23    24    1
    26    24    26    2
    27    24    27    1
    28    24    25    1
    29    27    28    1
    30    28    29    2
    31    28    31    1
    32    28    30    1
    33    31    32    1
    34    32    35    1
    35    32    34    1
    36    32    33    2
    37    35    44    1
    38    36    37    2
    39    36    47    2
    40    37    38    1
    41    37    39    1
    42    39    40   am
    43    40    41    2
    44    40    48    1
    45    42    48    1
    46    42    43    2
    47    43    45    1
    48    43    44    1
    49    45    46    2
    50    46    47    1
    51    47    48    1
