@<TRIPOS>MOLECULE
2e1m_FAD_1_ligand
   84    89     1     0     0
SMALL
NO_CHARGES


@<TRIPOS>ATOM
     1 PA          13.4550    55.7720    86.9620 P.3          1 FAD801   0.0000
     2 O1A         12.4080    54.6870    86.9710 O.co2        1 FAD801   0.0000
     3 O2A         13.8090    56.3770    85.7820 O.co2        1 FAD801  -1.0000
     4 O5B         12.8640    56.8170    87.9020 O.3          1 FAD801   0.0000
     5 C5B         13.5200    58.0950    88.1910 C.3          1 FAD801   0.0000
     6 C4B         12.3610    59.0010    88.6800 C.3          1 FAD801   0.0000
     7 O4B         12.9150    60.3390    88.9610 O.3          1 FAD801   0.0000
     8 C3B         11.1630    59.2200    87.7160 C.3          1 FAD801   0.0000
     9 O3B          9.9090    58.8580    88.2080 O.3          1 FAD801   0.0000
    10 C2B         11.3310    60.6850    87.2520 C.3          1 FAD801   0.0000
    11 O2B         10.1090    61.2890    86.8940 O.3          1 FAD801   0.0000
    12 C1B         11.9590    61.3400    88.4320 C.3          1 FAD801   0.0000
    13 N9A         12.8430    62.4750    88.1880 N.pl3        1 FAD801   0.0000
    14 C8A         13.8200    62.5880    87.2280 C.2          1 FAD801   0.0000
    15 N7A         14.4580    63.7510    87.2730 N.2          1 FAD801   0.0000
    16 C5A         13.8820    64.4350    88.3020 C.ar         1 FAD801   0.0000
    17 C6A         14.1290    65.7880    88.8700 C.ar         1 FAD801   0.0000
    18 N6A         15.0380    66.6210    88.4260 N.pl3        1 FAD801   0.0000
    19 N1A         13.3130    66.1320    89.9470 N.ar         1 FAD801   0.0000
    20 C2A         12.3370    65.2940    90.4600 C.ar         1 FAD801   0.0000
    21 N3A         12.0430    64.0440    89.9970 N.ar         1 FAD801   0.0000
    22 C4A         12.8410    63.6590    88.9130 C.ar         1 FAD801   0.0000
    23 N1          13.6160    46.3600    83.3280 N.2          1 FAD801   0.0000
    24 C2          13.2820    45.0910    83.5690 C.2          1 FAD801   0.0000
    25 O2          13.5380    44.5670    84.5890 O.2          1 FAD801   0.0000
    26 N3          12.5800    44.2940    82.6010 N.pl3        1 FAD801   0.0000
    27 C4          12.1980    44.8010    81.3480 C.2          1 FAD801   0.0000
    28 O4          11.5690    44.0830    80.5920 O.2          1 FAD801   0.0000
    29 C4X         12.5610    46.2090    81.0490 C.2          1 FAD801   0.0000
    30 N5          12.1900    46.8050    79.8610 N.2          1 FAD801   0.0000
    31 C5X         12.4530    48.1690    79.6790 C.ar         1 FAD801   0.0000
    32 C6          11.9910    48.7920    78.4690 C.ar         1 FAD801   0.0000
    33 C7          12.1780    50.1650    78.2330 C.ar         1 FAD801   0.0000
    34 C7M         11.6610    50.7740    76.9390 C.3          1 FAD801   0.0000
    35 C8          12.8690    51.0100    79.2630 C.ar         1 FAD801   0.0000
    36 C8M         13.1010    52.5010    79.1200 C.3          1 FAD801   0.0000
    37 C9          13.3340    50.4020    80.4500 C.ar         1 FAD801   0.0000
    38 C9A         13.1380    49.0000    80.6830 C.ar         1 FAD801   0.0000
    39 N10         13.5770    48.3110    81.9130 N.pl3        1 FAD801   0.0000
    40 C10         13.2850    46.9690    82.1220 C.2          1 FAD801   0.0000
    41 C1'         14.4870    49.0480    82.8650 C.3          1 FAD801   0.0000
    42 C2'         13.8500    49.4080    84.2410 C.3          1 FAD801   0.0000
    43 O2'         12.5240    49.8740    83.9990 O.3          1 FAD801   0.0000
    44 C3'         14.7030    50.5040    84.8790 C.3          1 FAD801   0.0000
    45 O3'         16.0160    50.0000    85.0820 O.3          1 FAD801   0.0000
    46 C4'         14.1810    50.9560    86.2690 C.3          1 FAD801   0.0000
    47 O4'         12.7380    51.1650    86.3350 O.3          1 FAD801   0.0000
    48 C5'         14.9220    52.2330    86.6120 C.3          1 FAD801   0.0000
    49 O5'         14.4120    52.7400    88.0200 O.3          1 FAD801   0.0000
    50 P           14.9990    53.9850    88.6060 P.3          1 FAD801   0.0000
    51 O1P         14.2110    54.0790    89.9430 O.co2        1 FAD801   0.0000
    52 O2P         16.3970    53.8850    88.7660 O.co2        1 FAD801  -1.0000
    53 O3P         14.7500    55.1770    87.7130 O.3          1 FAD801   0.0000
    54 H5B1        13.9444    58.4721    87.3678 H            1 FAD801   0.0000
    55 H5B2        14.2131    57.9869    88.9037 H            1 FAD801   0.0000
    56 H4B         12.0083    58.6227    89.5359 H            1 FAD801   0.0000
    57 H3B         11.3322    58.6456    86.9151 H            1 FAD801   0.0000
    58 H5           9.7062    59.3918    89.0289 H            1 FAD801   0.0000
    59 H2B         11.9608    60.7196    86.4760 H            1 FAD801   0.0000
    60 H7           9.4929    61.2872    87.6817 H            1 FAD801   0.0000
    61 H1B         11.2694    61.5691    89.1190 H            1 FAD801   0.0000
    62 H8A         14.0284    61.8691    86.5649 H            1 FAD801   0.0000
    63 H6A1        15.1488    67.5165    88.8571 H            1 FAD801   0.0000
    64 H6A2        15.6208    66.3612    87.6561 H            1 FAD801   0.0000
    65 H2A         11.8029    65.6330    91.2345 H            1 FAD801   0.0000
    66 H13         12.3558    43.3461    82.8272 H            1 FAD801   0.0000
    67 H14         11.5262    48.2363    77.7797 H            1 FAD801   0.0000
    68 H7M1        11.8710    51.7516    76.9234 H            1 FAD801   0.0000
    69 H7M2        12.1010    50.3261    76.1607 H            1 FAD801   0.0000
    70 H7M3        10.6710    50.6448    76.8820 H            1 FAD801   0.0000
    71 H8M1        13.5784    52.8432    79.9293 H            1 FAD801   0.0000
    72 H8M2        13.6563    52.6755    78.3069 H            1 FAD801   0.0000
    73 H8M3        12.2214    52.9680    79.0295 H            1 FAD801   0.0000
    74 H21         13.8056    50.9555    81.1364 H            1 FAD801   0.0000
    75 H1'1        14.7736    49.8985    82.4240 H            1 FAD801   0.0000
    76 H1'2        15.2882    48.4742    83.0349 H            1 FAD801   0.0000
    77 H2'         13.8286    48.6013    84.8316 H            1 FAD801   0.0000
    78 H25         12.2695    50.5361    84.7039 H            1 FAD801   0.0000
    79 H3'         14.7416    51.2934    84.2663 H            1 FAD801   0.0000
    80 H27         16.4098    49.7320    84.2028 H            1 FAD801   0.0000
    81 H4'         14.4291    50.2579    86.9407 H            1 FAD801   0.0000
    82 H29         12.5499    52.1137    86.5892 H            1 FAD801   0.0000
    83 H5'1        14.7391    52.9274    85.9160 H            1 FAD801   0.0000
    84 H5'2        15.9048    52.0530    86.6531 H            1 FAD801   0.0000
@<TRIPOS>BOND
     1    1    2      ar
     2    1    3      ar
     3    1    4       1
     4    1   53       1
     5    4    5       1
     6    5    6       1
     7    6    7       1
     8    6    8       1
     9    7   12       1
    10    8    9       1
    11    8   10       1
    12   10   11       1
    13   10   12       1
    14   12   13       1
    15   13   14       1
    16   13   22       1
    17   14   15       2
    18   15   16       1
    19   16   17      ar
    20   16   22      ar
    21   17   18       1
    22   17   19      ar
    23   19   20      ar
    24   20   21      ar
    25   21   22      ar
    26   23   24       1
    27   23   40       2
    28   24   25       2
    29   24   26       1
    30   26   27       1
    31   27   28       2
    32   27   29       1
    33   29   30       2
    34   29   40       1
    35   30   31       1
    36   31   32      ar
    37   31   38      ar
    38   32   33      ar
    39   33   34       1
    40   33   35      ar
    41   35   36       1
    42   35   37      ar
    43   37   38      ar
    44   38   39       1
    45   39   40       1
    46   39   41       1
    47   41   42       1
    48   42   43       1
    49   42   44       1
    50   44   45       1
    51   44   46       1
    52   46   47       1
    53   46   48       1
    54   48   49       1
    55   49   50       1
    56   50   51      ar
    57   50   52      ar
    58   50   53       1
    59   48   84       1
    60    5   54       1
    61    5   55       1
    62    6   56       1
    63    8   57       1
    64    9   58       1
    65   10   59       1
    66   11   60       1
    67   12   61       1
    68   14   62       1
    69   18   63       1
    70   18   64       1
    71   20   65       1
    72   26   66       1
    73   32   67       1
    74   34   68       1
    75   34   69       1
    76   34   70       1
    77   36   71       1
    78   36   72       1
    79   36   73       1
    80   37   74       1
    81   41   75       1
    82   41   76       1
    83   42   77       1
    84   43   78       1
    85   44   79       1
    86   45   80       1
    87   46   81       1
    88   47   82       1
    89   48   83       1
@<TRIPOS>SUBSTRUCTURE
     1 FAD801      1 GROUP             4 A     FAD     0 **** FAD A 801
