@<TRIPOS>MOLECULE
1efv_FAD_1_ligand
   84    89     1     0     0
SMALL
NO_CHARGES


@<TRIPOS>ATOM
     1 PA          10.1790    19.3320    65.8450 P.3          1 FAD599   0.0000
     2 O1A         11.4660    19.5860    65.1670 O.co2        1 FAD599   0.0000
     3 O2A          9.2210    18.3910    65.2540 O.co2        1 FAD599  -1.0000
     4 O5B         10.5110    18.8490    67.2880 O.3          1 FAD599   0.0000
     5 C5B          9.5620    18.3740    68.2390 C.3          1 FAD599   0.0000
     6 C4B         10.3810    17.8960    69.4370 C.3          1 FAD599   0.0000
     7 O4B          9.5640    17.5230    70.4940 O.3          1 FAD599   0.0000
     8 C3B         11.2270    16.6550    69.0680 C.3          1 FAD599   0.0000
     9 O3B         12.5900    16.8750    69.4860 O.3          1 FAD599   0.0000
    10 C2B         10.5670    15.6090    69.9890 C.3          1 FAD599   0.0000
    11 O2B         11.5100    14.6450    70.4460 O.3          1 FAD599   0.0000
    12 C1B         10.1450    16.4180    71.2140 C.3          1 FAD599   0.0000
    13 N9A          9.0820    15.7020    71.9580 N.pl3        1 FAD599   0.0000
    14 C8A          7.9390    15.1620    71.4240 C.2          1 FAD599   0.0000
    15 N7A          7.1220    14.6710    72.2870 N.2          1 FAD599   0.0000
    16 C5A          7.7710    14.8940    73.4950 C.ar         1 FAD599   0.0000
    17 C6A          7.4070    14.5890    74.8090 C.ar         1 FAD599   0.0000
    18 N6A          6.2490    13.9930    75.0880 N.pl3        1 FAD599   0.0000
    19 N1A          8.2560    14.9370    75.7740 N.ar         1 FAD599   0.0000
    20 C2A          9.3940    15.5460    75.4630 C.ar         1 FAD599   0.0000
    21 N3A          9.8570    15.8870    74.2750 N.ar         1 FAD599   0.0000
    22 C4A          8.9700    15.5210    73.3130 C.ar         1 FAD599   0.0000
    23 N1          11.3260    27.9000    63.8140 N.2          1 FAD599   0.0000
    24 C2          11.3140    28.5760    64.9380 C.2          1 FAD599   0.0000
    25 O2          11.1550    27.9580    65.9850 O.2          1 FAD599   0.0000
    26 N3          11.5110    29.9320    64.8740 N.pl3        1 FAD599   0.0000
    27 C4          11.7360    30.6980    63.7550 C.2          1 FAD599   0.0000
    28 O4          11.7900    31.9240    63.8780 O.2          1 FAD599   0.0000
    29 C4X         11.7720    29.9300    62.5550 C.2          1 FAD599   0.0000
    30 N5          12.0700    30.6380    61.4270 N.2          1 FAD599   0.0000
    31 C5X         12.1680    29.8570    60.3150 C.ar         1 FAD599   0.0000
    32 C6          12.5680    30.5240    59.1390 C.ar         1 FAD599   0.0000
    33 C7          12.7550    29.8510    57.9770 C.ar         1 FAD599   0.0000
    34 C7M         13.1890    30.6140    56.7420 C.3          1 FAD599   0.0000
    35 C8          12.5440    28.4540    57.9220 C.ar         1 FAD599   0.0000
    36 C8M         12.7160    27.6620    56.6430 C.3          1 FAD599   0.0000
    37 C9          12.1660    27.7980    59.0200 C.ar         1 FAD599   0.0000
    38 C9A         11.9680    28.4700    60.2390 C.ar         1 FAD599   0.0000
    39 N10         11.6310    27.8030    61.4580 N.pl3        1 FAD599   0.0000
    40 C10         11.5510    28.5630    62.6630 C.2          1 FAD599   0.0000
    41 C1'         11.2510    26.4160    61.5130 C.3          1 FAD599   0.0000
    42 C2'         12.3730    25.4610    61.9020 C.3          1 FAD599   0.0000
    43 O2'         13.1300    25.2270    60.6990 O.3          1 FAD599   0.0000
    44 C3'         11.7750    24.1360    62.4370 C.3          1 FAD599   0.0000
    45 O3'         10.7750    23.6300    61.5160 O.3          1 FAD599   0.0000
    46 C4'         11.0210    24.2730    63.7720 C.3          1 FAD599   0.0000
    47 O4'         11.7030    24.9470    64.8090 O.3          1 FAD599   0.0000
    48 C5'         10.6300    22.9000    64.3080 C.3          1 FAD599   0.0000
    49 O5'          9.8610    23.0940    65.4890 O.3          1 FAD599   0.0000
    50 P            9.8660    22.0550    66.7370 P.3          1 FAD599   0.0000
    51 O1P         11.2390    21.9400    67.3090 O.co2        1 FAD599   0.0000
    52 O2P          8.7270    22.5310    67.5650 O.co2        1 FAD599  -1.0000
    53 O3P          9.3760    20.6810    66.0780 O.3          1 FAD599   0.0000
    54 H5B1         9.0320    17.6179    67.8550 H            1 FAD599   0.0000
    55 H5B2         8.9428    19.1105    68.5115 H            1 FAD599   0.0000
    56 H4B         10.9889    18.6320    69.7348 H            1 FAD599   0.0000
    57 H3B         11.1556    16.4148    68.0999 H            1 FAD599   0.0000
    58 H5          12.9549    17.6821    69.0218 H            1 FAD599   0.0000
    59 H2B          9.7820    15.1743    69.5477 H            1 FAD599   0.0000
    60 H7          11.9200    14.9596    71.3021 H            1 FAD599   0.0000
    61 H1B         10.9157    16.6872    71.7916 H            1 FAD599   0.0000
    62 H8A          7.7559    15.1512    70.4410 H            1 FAD599   0.0000
    63 H6A1         6.0097    13.7844    76.0363 H            1 FAD599   0.0000
    64 H6A2         5.6188    13.7541    74.3492 H            1 FAD599   0.0000
    65 H2A          9.9827    15.7789    76.2371 H            1 FAD599   0.0000
    66 H13         11.4882    30.4218    65.7455 H            1 FAD599   0.0000
    67 H14         12.7167    31.5126    59.1624 H            1 FAD599   0.0000
    68 H7M1        13.2824    29.9801    55.9742 H            1 FAD599   0.0000
    69 H7M2        12.5032    31.3072    56.5203 H            1 FAD599   0.0000
    70 H7M3        14.0678    31.0582    56.9163 H            1 FAD599   0.0000
    71 H8M1        12.5202    26.6974    56.8194 H            1 FAD599   0.0000
    72 H8M2        12.0851    28.0087    55.9489 H            1 FAD599   0.0000
    73 H8M3        13.6563    27.7569    56.3161 H            1 FAD599   0.0000
    74 H21         12.0207    26.8096    58.9754 H            1 FAD599   0.0000
    75 H1'1        10.9148    26.1495    60.6097 H            1 FAD599   0.0000
    76 H1'2        10.5154    26.3213    62.1837 H            1 FAD599   0.0000
    77 H2'         12.9554    25.8808    62.5981 H            1 FAD599   0.0000
    78 H25         14.0750    25.5237    60.8368 H            1 FAD599   0.0000
    79 H3'         12.5050    23.4600    62.5371 H            1 FAD599   0.0000
    80 H27         11.0073    23.9104    60.5847 H            1 FAD599   0.0000
    81 H4'         10.1765    24.7767    63.5902 H            1 FAD599   0.0000
    82 H29         11.9165    25.8792    64.5167 H            1 FAD599   0.0000
    83 H5'1        11.4520    22.3717    64.5208 H            1 FAD599   0.0000
    84 H5'2        10.0869    22.4109    63.6255 H            1 FAD599   0.0000
@<TRIPOS>BOND
     1    1    2      ar
     2    1    3      ar
     3    1    4       1
     4    1   53       1
     5    4    5       1
     6    5    6       1
     7    6    7       1
     8    6    8       1
     9    7   12       1
    10    8    9       1
    11    8   10       1
    12   10   11       1
    13   10   12       1
    14   12   13       1
    15   13   14       1
    16   13   22       1
    17   14   15       2
    18   15   16       1
    19   16   17      ar
    20   16   22      ar
    21   17   18       1
    22   17   19      ar
    23   19   20      ar
    24   20   21      ar
    25   21   22      ar
    26   23   24       1
    27   23   40       2
    28   24   25       2
    29   24   26       1
    30   26   27       1
    31   27   28       2
    32   27   29       1
    33   29   30       2
    34   29   40       1
    35   30   31       1
    36   31   32      ar
    37   31   38      ar
    38   32   33      ar
    39   33   34       1
    40   33   35      ar
    41   35   36       1
    42   35   37      ar
    43   37   38      ar
    44   38   39       1
    45   39   40       1
    46   39   41       1
    47   41   42       1
    48   42   43       1
    49   42   44       1
    50   44   45       1
    51   44   46       1
    52   46   47       1
    53   46   48       1
    54   48   49       1
    55   49   50       1
    56   50   51      ar
    57   50   52      ar
    58   50   53       1
    59   48   84       1
    60    5   54       1
    61    5   55       1
    62    6   56       1
    63    8   57       1
    64    9   58       1
    65   10   59       1
    66   11   60       1
    67   12   61       1
    68   14   62       1
    69   18   63       1
    70   18   64       1
    71   20   65       1
    72   26   66       1
    73   32   67       1
    74   34   68       1
    75   34   69       1
    76   34   70       1
    77   36   71       1
    78   36   72       1
    79   36   73       1
    80   37   74       1
    81   41   75       1
    82   41   76       1
    83   42   77       1
    84   43   78       1
    85   44   79       1
    86   45   80       1
    87   46   81       1
    88   47   82       1
    89   48   83       1
@<TRIPOS>SUBSTRUCTURE
     1 FAD599      1 GROUP             4 A     FAD     0 **** FAD A 599
