@<TRIPOS>MOLECULE
1dnp_MHF_1_ligand
   54    57     1     0     0
SMALL
NO_CHARGES


@<TRIPOS>ATOM
     1 N1          40.8910    38.8830    38.6810 N.2          1 MHF473   0.0000
     2 C2          41.6620    38.2800    39.5800 C.2          1 MHF473   0.0000
     3 NA2         41.2100    38.3120    40.8430 N.pl3        1 MHF473   0.0000
     4 N3          42.8260    37.6600    39.3390 N.pl3        1 MHF473   0.0000
     5 C4          43.2890    37.6550    37.9830 C.2          1 MHF473   0.0000
     6 O4          44.4030    37.1280    37.7480 O.2          1 MHF473   0.0000
     7 C4A         42.5520    38.2880    36.9500 C.2          1 MHF473   0.0000
     8 N5          43.0060    38.4870    35.6300 N.pl3        1 MHF473   0.0000
     9 C6          42.4730    39.6800    34.9800 C.3          1 MHF473   0.0000
    10 C7          40.9990    39.6490    34.9800 C.3          1 MHF473   0.0000
    11 N8          40.5570    39.6210    36.4120 N.pl3        1 MHF473   0.0000
    12 C8A         41.3360    38.8960    37.3470 C.2          1 MHF473   0.0000
    13 C9          43.1450    39.7420    33.6680 C.3          1 MHF473   0.0000
    14 N10         43.8440    38.5120    33.6210 N.pl3        1 MHF473   0.0000
    15 C11         43.4650    37.7750    34.7270 C.3          1 MHF473   0.0000
    16 C12         46.7150    37.9610    30.5870 C.ar         1 MHF473   0.0000
    17 C13         45.5130    38.5850    30.3510 C.ar         1 MHF473   0.0000
    18 C14         44.5750    38.7380    31.3310 C.ar         1 MHF473   0.0000
    19 C15         44.8030    38.2590    32.6450 C.ar         1 MHF473   0.0000
    20 C16         46.0500    37.6050    32.9240 C.ar         1 MHF473   0.0000
    21 C17         46.9840    37.4660    31.8880 C.ar         1 MHF473   0.0000
    22 C           47.7060    37.8230    29.4340 C.2          1 MHF473   0.0000
    23 O           47.3890    38.3020    28.2570 O.2          1 MHF473   0.0000
    24 N           48.8580    37.2080    29.6340 N.am         1 MHF473   0.0000
    25 CA          49.5190    36.4270    28.5470 C.3          1 MHF473   0.0000
    26 CB          50.4690    37.4020    27.7550 C.3          1 MHF473   0.0000
    27 CG          51.2970    36.8990    26.5600 C.3          1 MHF473   0.0000
    28 CD          51.8120    37.9530    25.6030 C.2          1 MHF473   0.0000
    29 OE1         52.2870    39.0620    26.0640 O.co2        1 MHF473   0.0000
    30 OE2         51.7750    37.7160    24.3490 O.co2        1 MHF473  -1.0000
    31 CT          50.2130    35.0970    29.0900 C.2          1 MHF473   0.0000
    32 O1          50.7680    35.0780    30.2480 O.co2        1 MHF473   0.0000
    33 O2          50.1900    34.0430    28.3690 O.co2        1 MHF473  -1.0000
    34 HA21        41.7373    37.8787    41.5739 H            1 MHF473   0.0000
    35 HA22        40.3458    38.7691    41.0534 H            1 MHF473   0.0000
    36 H3          42.7636    40.4754    35.5119 H            1 MHF473   0.0000
    37 H4          40.6734    38.8316    34.5048 H            1 MHF473   0.0000
    38 H5          40.6390    40.4641    34.5261 H            1 MHF473   0.0000
    39 H6          39.7302    40.1036    36.7010 H            1 MHF473   0.0000
    40 H7          43.7749    40.5173    33.6213 H            1 MHF473   0.0000
    41 H8          42.4797    39.8078    32.9243 H            1 MHF473   0.0000
    42 H9          42.7659    37.1157    34.4502 H            1 MHF473   0.0000
    43 H10         44.2640    37.2863    35.0773 H            1 MHF473   0.0000
    44 H11         45.3202    38.9370    29.4351 H            1 MHF473   0.0000
    45 H12         43.7120    39.1961    31.1179 H            1 MHF473   0.0000
    46 H13         46.2485    37.2554    33.8396 H            1 MHF473   0.0000
    47 H14         47.8551    37.0098    32.0697 H            1 MHF473   0.0000
    48 H15         49.2958    37.2668    30.5312 H            1 MHF473   0.0000
    49 HA          48.7995    36.1426    27.9135 H            1 MHF473   0.0000
    50 HB1         51.1208    37.7671    28.4197 H            1 MHF473   0.0000
    51 HB2         49.8932    38.1436    27.4107 H            1 MHF473   0.0000
    52 HG1         50.7236    36.2682    26.0372 H            1 MHF473   0.0000
    53 HG2         52.0878    36.4069    26.9240 H            1 MHF473   0.0000
    54 H21         43.3468    37.2215    40.0714 H            1 MHF473   0.0000
@<TRIPOS>BOND
     1    1    2       2
     2    1   12       1
     3    2    3       1
     4    2    4       1
     5    4    5       1
     6    5    6       2
     7    5    7       1
     8    7    8       1
     9    7   12       2
    10    8    9       1
    11    8   15       1
    12    9   10       1
    13    9   13       1
    14   10   11       1
    15   11   12       1
    16   13   14       1
    17   14   15       1
    18   14   19       1
    19   16   17      ar
    20   16   21      ar
    21   16   22       1
    22   17   18      ar
    23   18   19      ar
    24   19   20      ar
    25   20   21      ar
    26   22   23       2
    27   22   24      am
    28   24   25       1
    29   25   26       1
    30   25   31       1
    31   26   27       1
    32   27   28       1
    33   28   29      ar
    34   28   30      ar
    35   31   32      ar
    36   31   33      ar
    37    4   54       1
    38    3   34       1
    39    3   35       1
    40    9   36       1
    41   10   37       1
    42   10   38       1
    43   11   39       1
    44   13   40       1
    45   13   41       1
    46   15   42       1
    47   15   43       1
    48   17   44       1
    49   18   45       1
    50   20   46       1
    51   21   47       1
    52   24   48       1
    53   25   49       1
    54   26   50       1
    55   26   51       1
    56   27   52       1
    57   27   53       1
@<TRIPOS>SUBSTRUCTURE
     1 MHF473      1 GROUP             4 A     MHF     0 **** MHF A 473
