@<TRIPOS>MOLECULE
4n3e_2AN_7_ligand
   33    35     1     0     0
SMALL
NO_CHARGES


@<TRIPOS>ATOM
     1 C1          22.6580     7.5880    26.1750 C.ar         1 2AN203   0.0000
     2 C2          24.0320     7.5860    26.2160 C.ar         1 2AN203   0.0000
     3 C3          24.7290     8.6270    26.8500 C.ar         1 2AN203   0.0000
     4 C4          24.1000     9.6700    27.4490 C.ar         1 2AN203   0.0000
     5 C5          22.6810     9.7010    27.4530 C.ar         1 2AN203   0.0000
     6 C6          21.9730    10.7350    28.0760 C.ar         1 2AN203   0.0000
     7 C7          20.6330    10.7710    28.0590 C.ar         1 2AN203   0.0000
     8 C8          19.8770     9.7650    27.4420 C.ar         1 2AN203   0.0000
     9 N           21.9580     6.5990    25.4810 N.pl3        1 2AN203   0.0000
    10 S           19.5310     7.4180    26.0500 S.o2         1 2AN203   0.0000
    11 C9          20.4960     8.7070    26.8290 C.ar         1 2AN203   0.0000
    12 C10         21.9420     8.6570    26.8000 C.ar         1 2AN203   0.0000
    13 C11         22.5740     5.7180    24.5940 C.ar         1 2AN203   0.0000
    14 C12         22.2560     4.3590    24.5970 C.ar         1 2AN203   0.0000
    15 C13         22.9260     3.4770    23.7720 C.ar         1 2AN203   0.0000
    16 C14         23.9540     3.9460    22.9890 C.ar         1 2AN203   0.0000
    17 C15         24.2560     5.3040    22.9710 C.ar         1 2AN203   0.0000
    18 C16         23.5710     6.1930    23.7770 C.ar         1 2AN203   0.0000
    19 O1          19.7650     7.4690    24.6150 O.co2        1 2AN203   0.0000
    20 O2          18.1210     7.6220    26.3190 O.co2        1 2AN203   0.0000
    21 O3          19.9420     6.0990    26.5990 O.co2        1 2AN203  -1.0000
    22 H1          24.5395     6.8367    25.7906 H            1 2AN203   0.0000
    23 H2          25.7285     8.5989    26.8606 H            1 2AN203   0.0000
    24 H3          24.6266    10.4030    27.8795 H            1 2AN203   0.0000
    25 H4          22.4768    11.4616    28.5432 H            1 2AN203   0.0000
    26 H5          20.1607    11.5354    28.4979 H            1 2AN203   0.0000
    27 H6          18.8785     9.8196    27.4491 H            1 2AN203   0.0000
    28 H7          20.9719     6.5194    25.6268 H            1 2AN203   0.0000
    29 H8          21.5358     4.0205    25.2026 H            1 2AN203   0.0000
    30 H9          22.6671     2.5115    23.7446 H            1 2AN203   0.0000
    31 H10         24.4862     3.3094    22.4309 H            1 2AN203   0.0000
    32 H11         24.9782     5.6410    22.3669 H            1 2AN203   0.0000
    33 H12         23.7975     7.1670    23.7658 H            1 2AN203   0.0000
@<TRIPOS>BOND
     1    1    2      ar
     2    1    9       1
     3    1   12      ar
     4    2    3      ar
     5    3    4      ar
     6    4    5      ar
     7    5    6      ar
     8    5   12      ar
     9    6    7      ar
    10    7    8      ar
    11    8   11      ar
    12    9   13       1
    13   10   11       1
    14   10   19      ar
    15   10   20      ar
    16   10   21      ar
    17   11   12      ar
    18   13   14      ar
    19   13   18      ar
    20   14   15      ar
    21   15   16      ar
    22   16   17      ar
    23   17   18      ar
    24    2   22       1
    25    3   23       1
    26    4   24       1
    27    6   25       1
    28    7   26       1
    29    8   27       1
    30    9   28       1
    31   14   29       1
    32   15   30       1
    33   16   31       1
    34   17   32       1
    35   18   33       1
@<TRIPOS>SUBSTRUCTURE
     1 2AN203      1 GROUP             4 B     2AN     0 **** 2AN B 203
