@<TRIPOS>MOLECULE
4uyg_73B_3_ligand
   53    56     1     0     0
SMALL
NO_CHARGES


@<TRIPOS>ATOM
     1 C1         -28.8480   -20.7850    19.2470 C.3          1 73B1456   0.0000
     2 C2         -29.9550   -21.8100    19.1200 C.3          1 73B1456   0.0000
     3 C3         -31.2920   -21.3040    19.7010 C.3          1 73B1456   0.0000
     4 C4         -32.4900   -21.3550    18.7530 C.3          1 73B1456   0.0000
     5 N1         -33.5890   -20.5260    19.2090 N.pl3        1 73B1456   0.0000
     6 C5         -34.9000   -20.9710    19.1030 C.ar         1 73B1456   0.0000
     7 C6         -35.2110   -22.0160    18.2390 C.ar         1 73B1456   0.0000
     8 C7         -36.5020   -22.5100    18.1720 C.ar         1 73B1456   0.0000
     9 C8         -37.4880   -21.9700    18.9460 C.ar         1 73B1456   0.0000
    10 CL1        -39.1020   -22.6330    18.7860 Cl           1 73B1456   0.0000
    11 C9         -37.2100   -20.9440    19.8290 C.ar         1 73B1456   0.0000
    12 C10        -35.9140   -20.4410    19.9150 C.ar         1 73B1456   0.0000
    13 C11        -32.0610   -20.9410    17.3880 C.ar         1 73B1456   0.0000
    14 C12        -32.8370   -20.0560    16.6370 C.ar         1 73B1456   0.0000
    15 C13        -32.4200   -19.6360    15.3660 C.ar         1 73B1456   0.0000
    16 C14        -31.2020   -20.1150    14.8740 C.ar         1 73B1456   0.0000
    17 C15        -30.4140   -20.9720    15.6170 C.ar         1 73B1456   0.0000
    18 C16        -30.8510   -21.3690    16.8690 C.ar         1 73B1456   0.0000
    19 N2         -30.1190   -22.2490    17.7150 N.am         1 73B1456   0.0000
    20 C17        -29.5990   -23.4240    17.3470 C.2          1 73B1456   0.0000
    21 C18        -30.0990   -24.0660    16.0630 C.3          1 73B1456   0.0000
    22 O1         -28.7510   -23.9590    18.0390 O.2          1 73B1456   0.0000
    23 C19        -33.2290   -18.6610    14.5730 C.ar         1 73B1456   0.0000
    24 C20        -33.0540   -18.5100    13.1940 C.ar         1 73B1456   0.0000
    25 C21        -33.8600   -17.6460    12.4550 C.ar         1 73B1456   0.0000
    26 C22        -34.8380   -16.8790    13.0820 C.ar         1 73B1456   0.0000
    27 C23        -34.9900   -16.9910    14.4530 C.ar         1 73B1456   0.0000
    28 C24        -34.1890   -17.8500    15.1880 C.ar         1 73B1456   0.0000
    29 C25        -35.7040   -15.9440    12.3100 C.2          1 73B1456   0.0000
    30 O2         -36.9520   -15.7950    12.6650 O.co2        1 73B1456   0.0000
    31 O3         -35.2220   -15.3330    11.3770 O.co2        1 73B1456  -1.0000
    32 H1         -28.0043   -21.1557    18.8587 H            1 73B1456   0.0000
    33 H2         -29.1050   -19.9540    18.7537 H            1 73B1456   0.0000
    34 H3         -28.7035   -20.5683    20.2125 H            1 73B1456   0.0000
    35 H4         -29.6823   -22.6111    19.6529 H            1 73B1456   0.0000
    36 H5         -31.1639   -20.3532    19.9829 H            1 73B1456   0.0000
    37 H6         -31.5099   -21.8625    20.5014 H            1 73B1456   0.0000
    38 H7         -32.8110   -22.3009    18.7060 H            1 73B1456   0.0000
    39 H8         -33.4011   -19.6263    19.6031 H            1 73B1456   0.0000
    40 H9         -34.4968   -22.4129    17.6624 H            1 73B1456   0.0000
    41 H10        -36.7136   -23.2666    17.5533 H            1 73B1456   0.0000
    42 H11        -37.9355   -20.5647    20.4032 H            1 73B1456   0.0000
    43 H12        -35.7062   -19.7019    20.5557 H            1 73B1456   0.0000
    44 H13        -33.7008   -19.7176    17.0102 H            1 73B1456   0.0000
    45 H14        -30.8952   -19.8312    13.9655 H            1 73B1456   0.0000
    46 H15        -29.5412   -21.3006    15.2561 H            1 73B1456   0.0000
    47 H16        -29.6238   -24.9337    15.9172 H            1 73B1456   0.0000
    48 H17        -31.0825   -24.2325    16.1346 H            1 73B1456   0.0000
    49 H18        -29.9197   -23.4542    15.2926 H            1 73B1456   0.0000
    50 H19        -32.3378   -19.0312    12.7298 H            1 73B1456   0.0000
    51 H20        -33.7347   -17.5764    11.4653 H            1 73B1456   0.0000
    52 H21        -35.6865   -16.4453    14.9189 H            1 73B1456   0.0000
    53 H22        -34.2996   -17.8913    16.1810 H            1 73B1456   0.0000
@<TRIPOS>BOND
     1    1    2       1
     2    2    3       1
     3    2   19       1
     4    3    4       1
     5    4    5       1
     6    4   13       1
     7    5    6       1
     8    6    7      ar
     9    6   12      ar
    10    7    8      ar
    11    8    9      ar
    12    9   10       1
    13    9   11      ar
    14   11   12      ar
    15   13   14      ar
    16   13   18      ar
    17   14   15      ar
    18   15   16      ar
    19   15   23       1
    20   16   17      ar
    21   17   18      ar
    22   18   19       1
    23   19   20      am
    24   20   21       1
    25   20   22       2
    26   23   24      ar
    27   23   28      ar
    28   24   25      ar
    29   25   26      ar
    30   26   27      ar
    31   26   29       1
    32   27   28      ar
    33   29   30      ar
    34   29   31      ar
    35    1   32       1
    36    1   33       1
    37    1   34       1
    38    2   35       1
    39    3   36       1
    40    3   37       1
    41    4   38       1
    42    5   39       1
    43    7   40       1
    44    8   41       1
    45   11   42       1
    46   12   43       1
    47   14   44       1
    48   16   45       1
    49   17   46       1
    50   21   47       1
    51   21   48       1
    52   21   49       1
    53   24   50       1
    54   25   51       1
    55   27   52       1
    56   28   53       1
@<TRIPOS>SUBSTRUCTURE
     1 73B1456     1 GROUP             4 C     73B     0 **** 73B C1456
