@<TRIPOS>MOLECULE
3kb6_NAD_1_ligand
   70    74     1     0     0
SMALL
NO_CHARGES


@<TRIPOS>ATOM
     1 PA         -27.3140    -0.9340    26.8990 P.3          1 NAD400   0.0000
     2 O1A        -28.1360    -0.6930    25.6870 O.co2        1 NAD400   0.0000
     3 O2A        -27.8470    -1.9290    27.8580 O.co2        1 NAD400  -1.0000
     4 O5B        -27.0220     0.4480    27.6550 O.3          1 NAD400   0.0000
     5 C5B        -26.8200     1.6710    26.9890 C.3          1 NAD400   0.0000
     6 C4B        -27.4120     2.7260    27.8330 C.3          1 NAD400   0.0000
     7 O4B        -27.1460     3.9560    27.2130 O.3          1 NAD400   0.0000
     8 C3B        -28.9400     2.6140    27.9630 C.3          1 NAD400   0.0000
     9 O3B        -29.2600     2.7610    29.3600 O.3          1 NAD400   0.0000
    10 C2B        -29.4430     3.7590    27.1280 C.3          1 NAD400   0.0000
    11 O2B        -30.5600     4.4140    27.6510 O.3          1 NAD400   0.0000
    12 C1B        -28.2890     4.7450    27.2270 C.3          1 NAD400   0.0000
    13 N9A        -28.2280     5.6960    26.1340 N.pl3        1 NAD400   0.0000
    14 C8A        -28.2040     5.4320    24.7770 C.2          1 NAD400   0.0000
    15 N7A        -28.1080     6.6350    24.1240 N.2          1 NAD400   0.0000
    16 C5A        -28.1170     7.6360    25.0390 C.ar         1 NAD400   0.0000
    17 C6A        -28.0470     9.0370    24.9600 C.ar         1 NAD400   0.0000
    18 N6A        -27.7760     9.6560    23.8290 N.pl3        1 NAD400   0.0000
    19 N1A        -28.0490     9.8030    26.1410 N.ar         1 NAD400   0.0000
    20 C2A        -28.1130     9.1740    27.3610 C.ar         1 NAD400   0.0000
    21 N3A        -28.1780     7.7980    27.4130 N.ar         1 NAD400   0.0000
    22 C4A        -28.1850     7.0490    26.3010 C.ar         1 NAD400   0.0000
    23 O3         -25.9020    -1.4310    26.3740 O.3          1 NAD400   0.0000
    24 PN         -24.7580    -2.1850    27.2060 P.3          1 NAD400   0.0000
    25 O1N        -24.9180    -3.6780    27.1490 O.co2        1 NAD400   0.0000
    26 O2N        -24.6140    -1.5010    28.5340 O.co2        1 NAD400  -1.0000
    27 O5D        -23.5540    -1.8650    26.2090 O.3          1 NAD400   0.0000
    28 C5D        -23.1470    -0.5450    25.9780 C.3          1 NAD400   0.0000
    29 C4D        -22.1320    -0.4720    24.8340 C.3          1 NAD400   0.0000
    30 O4D        -20.8840    -0.9770    25.2560 O.3          1 NAD400   0.0000
    31 C3D        -22.4790    -1.2410    23.5710 C.3          1 NAD400   0.0000
    32 O3D        -23.4450    -0.5670    22.7810 O.3          1 NAD400   0.0000
    33 C2D        -21.1350    -1.3300    22.8970 C.3          1 NAD400   0.0000
    34 O2D        -20.9200    -0.1730    22.0660 O.3          1 NAD400   0.0000
    35 C1D        -20.1750    -1.3350    24.1180 C.3          1 NAD400   0.0000
    36 N1N        -19.5860    -2.6350    24.4010 N.ar         1 NAD400   1.0000
    37 C2N        -18.2220    -2.6860    24.4600 C.ar         1 NAD400   0.0000
    38 C3N        -17.5750    -3.8710    24.6920 C.ar         1 NAD400   0.0000
    39 C7N        -16.0880    -3.8420    24.9160 C.2          1 NAD400   0.0000
    40 O7N        -15.4730    -5.0370    24.9490 O.2          1 NAD400   0.0000
    41 N7N        -15.3870    -2.7370    25.1590 N.am         1 NAD400   0.0000
    42 C4N        -18.3070    -5.0320    24.8880 C.ar         1 NAD400   0.0000
    43 C5N        -19.7180    -4.9560    24.8670 C.ar         1 NAD400   0.0000
    44 C6N        -20.3390    -3.7460    24.6340 C.ar         1 NAD400   0.0000
    45 H5B1       -27.2692     1.6537    26.0957 H            1 NAD400   0.0000
    46 H5B2       -25.8416     1.8378    26.8669 H            1 NAD400   0.0000
    47 H4B        -26.9932     2.7074    28.7409 H            1 NAD400   0.0000
    48 H3B        -29.2683     1.7384    27.6086 H            1 NAD400   0.0000
    49 H5         -29.7243     1.9368    29.6841 H            1 NAD400   0.0000
    50 H2B        -29.5985     3.4766    26.1814 H            1 NAD400   0.0000
    51 H7         -30.3359     4.7883    28.5508 H            1 NAD400   0.0000
    52 H1B        -28.3442     5.2375    28.0955 H            1 NAD400   0.0000
    53 H8A        -28.2485     4.5291    24.3495 H            1 NAD400   0.0000
    54 H6A1       -27.7329    10.6547    23.8035 H            1 NAD400   0.0000
    55 H6A2       -27.6135     9.1271    22.9960 H            1 NAD400   0.0000
    56 H2A        -28.1124     9.7105    28.2049 H            1 NAD400   0.0000
    57 H5D1       -22.7275    -0.1824    26.8102 H            1 NAD400   0.0000
    58 H5D2       -23.9468     0.0063    25.7404 H            1 NAD400   0.0000
    59 H4D        -22.0104     0.4896    24.5881 H            1 NAD400   0.0000
    60 H3D        -22.8062    -2.1563    23.8058 H            1 NAD400   0.0000
    61 H17        -22.9824     0.0386    22.1336 H            1 NAD400   0.0000
    62 H2D        -21.0514    -2.1748    22.3684 H            1 NAD400   0.0000
    63 H19        -20.9503     0.6525    22.6296 H            1 NAD400   0.0000
    64 H1D        -19.4442    -0.6700    23.9638 H            1 NAD400   0.0000
    65 H2N        -17.6900    -1.8489    24.3324 H            1 NAD400   0.0000
    66 H7N1       -14.3983    -2.7926    25.2985 H            1 NAD400   0.0000
    67 H7N2       -15.8490    -1.8512    25.2021 H            1 NAD400   0.0000
    68 H4N        -17.8457    -5.9059    25.0412 H            1 NAD400   0.0000
    69 H5N        -20.2659    -5.7783    25.0208 H            1 NAD400   0.0000
    70 H6N        -21.3371    -3.6850    24.6362 H            1 NAD400   0.0000
@<TRIPOS>BOND
     1    1    2      ar
     2    1    3      ar
     3    1    4       1
     4    1   23       1
     5    4    5       1
     6    5    6       1
     7    6    7       1
     8    6    8       1
     9    7   12       1
    10    8    9       1
    11    8   10       1
    12   10   11       1
    13   10   12       1
    14   12   13       1
    15   13   14       1
    16   13   22       1
    17   14   15       2
    18   15   16       1
    19   16   17      ar
    20   16   22      ar
    21   17   18       1
    22   17   19      ar
    23   19   20      ar
    24   20   21      ar
    25   21   22      ar
    26   23   24       1
    27   24   25      ar
    28   24   26      ar
    29   24   27       1
    30   27   28       1
    31   28   29       1
    32   29   30       1
    33   29   31       1
    34   30   35       1
    35   31   32       1
    36   31   33       1
    37   33   34       1
    38   33   35       1
    39   35   36       1
    40   36   37      ar
    41   36   44      ar
    42   37   38      ar
    43   38   39       1
    44   38   42      ar
    45   39   40       2
    46   39   41      am
    47   42   43      ar
    48   43   44      ar
    49   44   70       1
    50    5   45       1
    51    5   46       1
    52    6   47       1
    53    8   48       1
    54    9   49       1
    55   10   50       1
    56   11   51       1
    57   12   52       1
    58   14   53       1
    59   18   54       1
    60   18   55       1
    61   20   56       1
    62   43   69       1
    63   28   57       1
    64   28   58       1
    65   29   59       1
    66   31   60       1
    67   32   61       1
    68   33   62       1
    69   34   63       1
    70   35   64       1
    71   37   65       1
    72   41   66       1
    73   41   67       1
    74   42   68       1
@<TRIPOS>SUBSTRUCTURE
     1 NAD400      1 GROUP             4 A     NAD     0 **** NAD A 400
