@<TRIPOS>MOLECULE
1zj7_0ZT_1_ligand
  101   103     1     0     0
SMALL
NO_CHARGES


@<TRIPOS>ATOM
     1 O1          -7.8930    15.4990    25.0630 O.2          1 0ZT201   0.0000
     2 C           -7.9420    16.5890    24.5140 C.2          1 0ZT201   0.0000
     3 O2          -8.1330    16.8230    23.1500 O.3          1 0ZT201   0.0000
     4 CT          -8.7800    15.8560    22.1830 C.3          1 0ZT201   0.0000
     5 C1          -8.7830    16.5560    20.8360 C.3          1 0ZT201   0.0000
     6 C2         -10.2110    15.5620    22.6380 C.3          1 0ZT201   0.0000
     7 C3          -7.9500    14.5730    22.1230 C.3          1 0ZT201   0.0000
     8 N           -7.8220    17.8080    25.1470 N.am         1 0ZT201   0.0000
     9 CA          -7.2610    17.9720    26.4970 C.3          1 0ZT201   0.0000
    10 C4          -8.3560    18.2850    27.5590 C.3          1 0ZT201   0.0000
    11 OS          -9.2540    19.2580    27.0560 O.3          1 0ZT201   0.0000
    12 CB          -6.2320    19.1130    26.5220 C.3          1 0ZT201   0.0000
    13 CG          -5.0160    18.8690    25.6720 C.ar         1 0ZT201   0.0000
    14 CD1         -5.1080    18.8470    24.2870 C.ar         1 0ZT201   0.0000
    15 CD2         -3.7740    18.6630    26.2630 C.ar         1 0ZT201   0.0000
    16 CE1         -3.9830    18.6230    23.5030 C.ar         1 0ZT201   0.0000
    17 CE2         -2.6450    18.4400    25.4890 C.ar         1 0ZT201   0.0000
    18 CZ          -2.7490    18.4190    24.1070 C.ar         1 0ZT201   0.0000
    19 CM          -9.1480    17.0180    27.9460 C.3          1 0ZT201   0.0000
    20 N1         -10.5800    17.3150    28.0340 N.4          1 0ZT201   1.0000
    21 CA1        -11.4240    16.2140    28.5160 C.3          1 0ZT201   0.0000
    22 C5         -10.8000    15.3510    29.6240 C.2          1 0ZT201   0.0000
    23 O          -10.0210    14.4440    29.3510 O.2          1 0ZT201   0.0000
    24 CB1        -11.8370    15.3140    27.3450 C.3          1 0ZT201   0.0000
    25 CG1        -12.5890    14.0820    27.7640 C.ar         1 0ZT201   0.0000
    26 CD11       -12.2780    12.8470    27.2100 C.ar         1 0ZT201   0.0000
    27 CD21       -13.5880    14.1500    28.7330 C.ar         1 0ZT201   0.0000
    28 CE11       -12.9390    11.7010    27.6120 C.ar         1 0ZT201   0.0000
    29 CE21       -14.2610    13.0020    29.1450 C.ar         1 0ZT201   0.0000
    30 CZ1        -13.9330    11.7740    28.5820 C.ar         1 0ZT201   0.0000
    31 N2         -11.1720    15.6260    30.8710 N.am         1 0ZT201   0.0000
    32 CA2        -10.6580    14.8860    32.0210 C.3          1 0ZT201   0.0000
    33 C6         -11.7880    14.6030    33.0100 C.2          1 0ZT201   0.0000
    34 O3         -12.6790    15.4320    33.2060 O.2          1 0ZT201   0.0000
    35 CB2         -9.5340    15.6960    32.6820 C.3          1 0ZT201   0.0000
    36 CG2         -8.9290    15.0980    33.9280 C.3          1 0ZT201   0.0000
    37 CD          -9.7970    15.3120    35.1460 C.2          1 0ZT201   0.0000
    38 OE1        -10.5100    16.3370    35.1780 O.2          1 0ZT201   0.0000
    39 OE2         -9.7570    14.4730    36.0740 O.3          1 0ZT201   0.0000
    40 N3         -11.7570    13.4260    33.6240 N.am         1 0ZT201   0.0000
    41 CA3        -12.7870    13.0670    34.5810 C.3          1 0ZT201   0.0000
    42 C7         -12.2480    12.4220    35.8540 C.2          1 0ZT201   0.0000
    43 O4         -11.2830    11.6620    35.8170 O.2          1 0ZT201   0.0000
    44 CB3        -13.8110    12.1540    33.9060 C.3          1 0ZT201   0.0000
    45 CG3        -13.2090    10.9610    33.2120 C.ar         1 0ZT201   0.0000
    46 CD12       -12.8770     9.8170    33.9230 C.ar         1 0ZT201   0.0000
    47 CD22       -12.9960    10.9740    31.8380 C.ar         1 0ZT201   0.0000
    48 CE12       -12.3470     8.7040    33.2750 C.ar         1 0ZT201   0.0000
    49 CE22       -12.4660     9.8670    31.1830 C.ar         1 0ZT201   0.0000
    50 CZ2        -12.1420     8.7310    31.8990 C.ar         1 0ZT201   0.0000
    51 N4         -12.8780    12.7280    36.9850 N.am         1 0ZT201   0.0000
    52 H1          -9.2023    15.9597    20.1514 H            1 0ZT201   0.0000
    53 H2          -9.3059    17.4057    20.9031 H            1 0ZT201   0.0000
    54 H3          -7.8428    16.7637    20.5662 H            1 0ZT201   0.0000
    55 H4         -10.6392    14.9228    21.9992 H            1 0ZT201   0.0000
    56 H5         -10.1936    15.1578    23.5525 H            1 0ZT201   0.0000
    57 H6         -10.7354    16.4132    22.6597 H            1 0ZT201   0.0000
    58 H7          -8.3745    13.9309    21.4846 H            1 0ZT201   0.0000
    59 H8          -7.0244    14.7890    21.8123 H            1 0ZT201   0.0000
    60 H9          -7.9084    14.1601    23.0328 H            1 0ZT201   0.0000
    61 H10         -8.1333    18.6252    24.6620 H            1 0ZT201   0.0000
    62 HA          -6.8006    17.1227    26.7555 H            1 0ZT201   0.0000
    63 H12         -7.9136    18.6497    28.3783 H            1 0ZT201   0.0000
    64 HS          -9.6172    19.7998    27.8140 H            1 0ZT201   0.0000
    65 HB1         -5.9323    19.2437    27.4670 H            1 0ZT201   0.0000
    66 HB2         -6.6798    19.9456    26.1962 H            1 0ZT201   0.0000
    67 HD1         -5.9945    18.9941    23.8484 H            1 0ZT201   0.0000
    68 HD2         -3.6939    18.6759    27.2597 H            1 0ZT201   0.0000
    69 HE1         -4.0616    18.6087    22.5062 H            1 0ZT201   0.0000
    70 HE2         -1.7579    18.2947    25.9270 H            1 0ZT201   0.0000
    71 HZ          -1.9372    18.2573    23.5459 H            1 0ZT201   0.0000
    72 HM1         -8.8256    16.6864    28.8326 H            1 0ZT201   0.0000
    73 HM2         -9.0002    16.3129    27.2525 H            1 0ZT201   0.0000
    74 H23        -10.8985    17.5709    27.1213 H            1 0ZT201   0.0000
    75 HA1        -12.2586    16.6196    28.8887 H            1 0ZT201   0.0000
    76 HB11       -11.0106    15.0292    26.8593 H            1 0ZT201   0.0000
    77 HB12       -12.4193    15.8448    26.7293 H            1 0ZT201   0.0000
    78 H27        -11.5660    12.7857    26.5105 H            1 0ZT201   0.0000
    79 H28        -13.8246    15.0334    29.1375 H            1 0ZT201   0.0000
    80 H29        -12.7021    10.8189    27.2049 H            1 0ZT201   0.0000
    81 H30        -14.9759    13.0609    29.8417 H            1 0ZT201   0.0000
    82 HZ1        -14.4106    10.9452    28.8737 H            1 0ZT201   0.0000
    83 H32        -11.8268    16.3656    31.0269 H            1 0ZT201   0.0000
    84 HA2        -10.2832    14.0154    31.7024 H            1 0ZT201   0.0000
    85 HB21        -9.9048    16.5930    32.9226 H            1 0ZT201   0.0000
    86 HB22        -8.8018    15.8073    32.0100 H            1 0ZT201   0.0000
    87 HG21        -8.0383    15.5232    34.0890 H            1 0ZT201   0.0000
    88 HG22        -8.8087    14.1153    33.7874 H            1 0ZT201   0.0000
    89 H38        -11.0182    12.7821    33.4253 H            1 0ZT201   0.0000
    90 HA3        -13.2598    13.9076    34.8453 H            1 0ZT201   0.0000
    91 HB31       -14.3122    12.6917    33.2280 H            1 0ZT201   0.0000
    92 HB32       -14.4456    11.8235    34.6046 H            1 0ZT201   0.0000
    93 H42        -13.0199     9.7912    34.9124 H            1 0ZT201   0.0000
    94 H43        -13.2276    11.7924    31.3121 H            1 0ZT201   0.0000
    95 H44        -12.1136     7.8849    33.7990 H            1 0ZT201   0.0000
    96 H45        -12.3196     9.8936    30.1941 H            1 0ZT201   0.0000
    97 HZ2        -11.7624     7.9328    31.4312 H            1 0ZT201   0.0000
    98 H47        -12.5694    12.3352    37.8513 H            1 0ZT201   0.0000
    99 H48        -13.6602    13.3508    36.9689 H            1 0ZT201   0.0000
   100 H49        -10.6968    18.0886    28.6569 H            1 0ZT201   0.0000
   101 H50        -10.3250    14.5995    36.8872 H            1 0ZT201   0.0000
@<TRIPOS>BOND
     1    1    2       2
     2    2    3       1
     3    2    8      am
     4    3    4       1
     5    4    5       1
     6    4    6       1
     7    4    7       1
     8    8    9       1
     9    9   10       1
    10    9   12       1
    11   10   11       1
    12   10   19       1
    13   12   13       1
    14   13   14      ar
    15   13   15      ar
    16   14   16      ar
    17   15   17      ar
    18   16   18      ar
    19   17   18      ar
    20   19   20       1
    21   20   21       1
    22   21   22       1
    23   21   24       1
    24   22   23       2
    25   22   31      am
    26   24   25       1
    27   25   26      ar
    28   25   27      ar
    29   26   28      ar
    30   27   29      ar
    31   28   30      ar
    32   29   30      ar
    33   31   32       1
    34   32   33       1
    35   32   35       1
    36   33   34       2
    37   33   40      am
    38   35   36       1
    39   36   37       1
    40   37   38       2
    41   37   39       1
    42   40   41       1
    43   41   42       1
    44   41   44       1
    45   42   43       2
    46   42   51      am
    47   44   45       1
    48   45   46      ar
    49   45   47      ar
    50   46   48      ar
    51   47   49      ar
    52   48   50      ar
    53   49   50      ar
    54    5   52       1
    55    5   53       1
    56    5   54       1
    57    6   55       1
    58    6   56       1
    59    6   57       1
    60    7   58       1
    61    7   59       1
    62    7   60       1
    63    8   61       1
    64    9   62       1
    65   10   63       1
    66   11   64       1
    67   12   65       1
    68   12   66       1
    69   14   67       1
    70   15   68       1
    71   16   69       1
    72   17   70       1
    73   18   71       1
    74   19   72       1
    75   19   73       1
    76   20   74       1
    77   21   75       1
    78   24   76       1
    79   24   77       1
    80   26   78       1
    81   27   79       1
    82   28   80       1
    83   29   81       1
    84   30   82       1
    85   31   83       1
    86   32   84       1
    87   35   85       1
    88   35   86       1
    89   36   87       1
    90   36   88       1
    91   20  100       1
    92   40   89       1
    93   41   90       1
    94   44   91       1
    95   44   92       1
    96   46   93       1
    97   47   94       1
    98   48   95       1
    99   49   96       1
   100   50   97       1
   101   51   98       1
   102   51   99       1
   103   39  101       1
@<TRIPOS>SUBSTRUCTURE
     1 0ZT201      1 GROUP             4 A     0ZT     0 **** 0ZT A 201
