@<TRIPOS>MOLECULE
1g8o_U5P_1_ligand
   32    33     1     0     0
SMALL
NO_CHARGES


@<TRIPOS>ATOM
     1 N1          84.8490    13.9900    47.7690 N.pl3        1 U5P474   0.0000
     2 C2          84.8450    12.7090    48.3280 C.2          1 U5P474   0.0000
     3 N3          83.6380    12.0500    48.2480 N.pl3        1 U5P474   0.0000
     4 C4          82.4380    12.5160    47.6780 C.2          1 U5P474   0.0000
     5 C5          82.5220    13.8300    47.1350 C.2          1 U5P474   0.0000
     6 C6          83.6560    14.4950    47.1880 C.2          1 U5P474   0.0000
     7 O2          85.8450    12.2500    48.8360 O.2          1 U5P474   0.0000
     8 O4          81.4670    11.7890    47.6970 O.2          1 U5P474   0.0000
     9 C1'         86.1230    14.8110    47.7890 C.3          1 U5P474   0.0000
    10 C2'         87.1440    14.2490    46.7810 C.3          1 U5P474   0.0000
    11 O2'         88.5420    14.4390    47.1850 O.3          1 U5P474   0.0000
    12 C3'         86.7360    14.9610    45.5180 C.3          1 U5P474   0.0000
    13 C4'         86.5240    16.3720    46.0830 C.3          1 U5P474   0.0000
    14 O3'         87.6750    14.8110    44.4120 O.3          1 U5P474   0.0000
    15 O4'         85.8310    16.1070    47.3510 O.3          1 U5P474   0.0000
    16 C5'         85.5490    17.2550    45.2970 C.3          1 U5P474   0.0000
    17 O5'         85.4000    16.7890    43.9330 O.3          1 U5P474   0.0000
    18 P           83.9730    16.4110    43.2900 P.3          1 U5P474   0.0000
    19 O1P         83.1510    15.3380    43.9360 O.co2        1 U5P474   0.0000
    20 O2P         84.1400    15.9290    41.8900 O.co2        1 U5P474  -1.0000
    21 O3P         83.2800    17.9240    43.1240 O.co2        1 U5P474  -1.0000
    22 H1          83.6109    11.1312    48.6417 H            1 U5P474   0.0000
    23 H2          81.7176    14.2479    46.7127 H            1 U5P474   0.0000
    24 H3          83.6791    15.4139    46.7943 H            1 U5P474   0.0000
    25 H1'         86.5132    14.8312    48.7095 H            1 U5P474   0.0000
    26 H2'         86.9744    13.2703    46.6657 H            1 U5P474   0.0000
    27 H6          88.8433    13.6519    47.7232 H            1 U5P474   0.0000
    28 H3'         85.8488    14.6023    45.2277 H            1 U5P474   0.0000
    29 H4'         87.3956    16.8380    46.2350 H            1 U5P474   0.0000
    30 H9          87.6387    15.6243    43.8312 H            1 U5P474   0.0000
    31 H5'1        85.8960    18.1928    45.2849 H            1 U5P474   0.0000
    32 H5'2        84.6563    17.2356    45.7473 H            1 U5P474   0.0000
@<TRIPOS>BOND
     1    1    2       1
     2    1    6       1
     3    1    9       1
     4    2    3       1
     5    2    7       2
     6    3    4       1
     7    4    5       1
     8    4    8       2
     9    5    6       2
    10    9   10       1
    11    9   15       1
    12   10   11       1
    13   10   12       1
    14   12   13       1
    15   12   14       1
    16   13   15       1
    17   13   16       1
    18   16   17       1
    19   17   18       1
    20   18   19      ar
    21   18   20      ar
    22   18   21      ar
    23    3   22       1
    24    5   23       1
    25    6   24       1
    26    9   25       1
    27   10   26       1
    28   11   27       1
    29   12   28       1
    30   13   29       1
    31   14   30       1
    32   16   31       1
    33   16   32       1
@<TRIPOS>SUBSTRUCTURE
     1 U5P474      1 GROUP             4 A     U5P     0 **** U5P A 474
