@<TRIPOS>MOLECULE
2vz6_FEF_2_ligand
   46    49     1     0     0
SMALL
NO_CHARGES


@<TRIPOS>ATOM
     1 OAV          6.5310    53.0310    38.6470 O.2          1 FEF600   0.0000
     2 CAT          6.7850    52.8030    39.8970 C.2          1 FEF600   0.0000
     3 CAR          6.9720    51.5600    40.4920 C.2          1 FEF600   0.0000
     4 CAS          7.1950    51.8450    41.8580 C.ar         1 FEF600   0.0000
     5 CAX          7.4820    51.1080    43.0270 C.ar         1 FEF600   0.0000
     6 CAY          7.6570    51.7290    44.2600 C.ar         1 FEF600   0.0000
     7 CAZ          7.5810    53.1020    44.3490 C.ar         1 FEF600   0.0000
     8 CBA          7.3140    53.8530    43.2100 C.ar         1 FEF600   0.0000
     9 CAW          7.1200    53.2440    41.9730 C.ar         1 FEF600   0.0000
    10 NAU          6.8390    53.7960    40.7750 N.am         1 FEF600   0.0000
    11 CAI          6.9060    50.3850    39.7460 C.2          1 FEF600   0.0000
    12 CAG          7.0720    49.0430    40.0720 C.2          1 FEF600   0.0000
    13 CAD          6.9340    48.2800    38.9180 C.ar         1 FEF600   0.0000
    14 CAC          7.0010    46.9090    38.6590 C.ar         1 FEF600   0.0000
    15 CAA          6.8000    46.4470    37.3650 C.ar         1 FEF600   0.0000
    16 CAB          6.5490    47.3530    36.3350 C.ar         1 FEF600   0.0000
    17 CAF          6.4840    48.7220    36.6070 C.ar         1 FEF600   0.0000
    18 CAE          6.6860    49.1880    37.9060 C.ar         1 FEF600   0.0000
    19 NAH          6.6670    50.4400    38.4200 N.pl3        1 FEF600   0.0000
    20 NAJ          7.3320    48.5420    41.3020 N.2          1 FEF600   0.0000
    21 OAK          7.4260    47.1500    41.6840 O.3          1 FEF600   0.0000
    22 CAL          7.2500    46.7560    43.0610 C.3          1 FEF600   0.0000
    23 CAM          8.6050    46.5860    43.7390 C.3          1 FEF600   0.0000
    24 CAN          8.8490    47.6640    44.7960 C.3          1 FEF600   0.0000
    25 OAQ          7.8500    47.5440    45.8220 O.3          1 FEF600   0.0000
    26 CAO         10.2790    47.5610    45.3530 C.3          1 FEF600   0.0000
    27 OAP         10.3340    47.4060    46.7870 O.3          1 FEF600   0.0000
    28 HAX          7.5617    50.1130    42.9676 H            1 FEF600   0.0000
    29 HAY          7.8370    51.1816    45.0773 H            1 FEF600   0.0000
    30 HAZ          7.7174    53.5563    45.2293 H            1 FEF600   0.0000
    31 HBA          7.2603    54.8491    43.2804 H            1 FEF600   0.0000
    32 HAU          6.6983    54.7676    40.5850 H            1 FEF600   0.0000
    33 HAC          7.1923    46.2651    39.3998 H            1 FEF600   0.0000
    34 HAA          6.8352    45.4664    37.1721 H            1 FEF600   0.0000
    35 HAB          6.4154    47.0225    35.4007 H            1 FEF600   0.0000
    36 HAF          6.2923    49.3689    35.8689 H            1 FEF600   0.0000
    37 HAH          6.5014    51.2763    37.8973 H            1 FEF600   0.0000
    38 HAL1         6.7527    45.8891    43.0953 H            1 FEF600   0.0000
    39 HAL2         6.7266    47.4598    43.5413 H            1 FEF600   0.0000
    40 HAM1         9.3235    46.6435    43.0459 H            1 FEF600   0.0000
    41 HAM2         8.6369    45.6883    44.1785 H            1 FEF600   0.0000
    42 HAN          8.7457    48.5585    44.3611 H            1 FEF600   0.0000
    43 HAQ          8.0015    48.2455    46.5184 H            1 FEF600   0.0000
    44 HAO1        10.7745    48.3938    45.1064 H            1 FEF600   0.0000
    45 HAO2        10.7252    46.7708    44.9328 H            1 FEF600   0.0000
    46 HAP         11.2884    47.3457    47.0794 H            1 FEF600   0.0000
@<TRIPOS>BOND
     1    1    2       2
     2    2    3       1
     3    2   10      am
     4    3    4       1
     5    3   11       2
     6    4    5      ar
     7    4    9      ar
     8    5    6      ar
     9    6    7      ar
    10    7    8      ar
    11    8    9      ar
    12    9   10       1
    13   11   12       1
    14   11   19       1
    15   12   13       1
    16   12   20       2
    17   13   14      ar
    18   13   18      ar
    19   14   15      ar
    20   15   16      ar
    21   16   17      ar
    22   17   18      ar
    23   18   19       1
    24   20   21       1
    25   21   22       1
    26   22   23       1
    27   23   24       1
    28   24   25       1
    29   24   26       1
    30   26   27       1
    31    5   28       1
    32    6   29       1
    33    7   30       1
    34    8   31       1
    35   10   32       1
    36   14   33       1
    37   15   34       1
    38   16   35       1
    39   17   36       1
    40   19   37       1
    41   22   38       1
    42   22   39       1
    43   23   40       1
    44   23   41       1
    45   24   42       1
    46   25   43       1
    47   26   44       1
    48   26   45       1
    49   27   46       1
@<TRIPOS>SUBSTRUCTURE
     1 FEF600      1 GROUP             4 B     FEF     0 **** FEF B 600
