@<TRIPOS>MOLECULE
4lh7_1X8_1_ligand
   24    25     1     0     0
SMALL
NO_CHARGES


@<TRIPOS>ATOM
     1 C1          21.4260    34.6200    19.9740 C.2          1 1X8401   0.0000
     2 C2          20.7700    34.5320    18.7380 C.ar         1 1X8401   0.0000
     3 C3          20.0890    33.3150    18.5770 C.ar         1 1X8401   0.0000
     4 C4          19.3680    33.0530    17.3820 C.ar         1 1X8401   0.0000
     5 C5          19.3350    34.0390    16.4030 C.ar         1 1X8401   0.0000
     6 N6          19.9850    35.1760    16.5670 N.ar         1 1X8401   0.0000
     7 C7          20.6880    35.4620    17.6550 C.ar         1 1X8401   0.0000
     8 N8          21.3340    36.6710    17.7170 N.pl3        1 1X8401   0.0000
     9 C9          18.6210    31.7790    17.2380 C.2          1 1X8401   0.0000
    10 O10         18.9190    30.8240    17.9320 O.2          1 1X8401   0.0000
    11 N11         17.5770    31.6500    16.3890 N.am         1 1X8401   0.0000
    12 S12         20.3150    32.3070    19.9970 S.3          1 1X8401   0.0000
    13 C13         21.2700    33.5490    20.7730 C.2          1 1X8401   0.0000
    14 C14         21.7920    33.3540    22.1260 C.2          1 1X8401   0.0000
    15 O15         21.4270    32.3560    22.7460 O.2          1 1X8401   0.0000
    16 N16         22.5810    34.2780    22.7090 N.am         1 1X8401   0.0000
    17 H1          21.9678    35.4170    20.2409 H            1 1X8401   0.0000
    18 H2          18.8125    33.8852    15.5643 H            1 1X8401   0.0000
    19 H3          21.2687    37.3126    16.9527 H            1 1X8401   0.0000
    20 H4          21.8701    36.9105    18.5264 H            1 1X8401   0.0000
    21 H5          17.0960    30.7763    16.3172 H            1 1X8401   0.0000
    22 H6          17.2857    32.4283    15.8328 H            1 1X8401   0.0000
    23 H7          22.9281    34.1268    23.6345 H            1 1X8401   0.0000
    24 H8          22.8193    35.1148    22.2161 H            1 1X8401   0.0000
@<TRIPOS>BOND
     1    1    2       1
     2    1   13       2
     3    2    3      ar
     4    2    7      ar
     5    3    4      ar
     6    3   12       1
     7    4    5      ar
     8    4    9       1
     9    5    6      ar
    10    6    7      ar
    11    7    8       1
    12    9   10       2
    13    9   11      am
    14   12   13       1
    15   13   14       1
    16   14   15       2
    17   14   16      am
    18    1   17       1
    19    5   18       1
    20    8   19       1
    21    8   20       1
    22   11   21       1
    23   11   22       1
    24   16   23       1
    25   16   24       1
@<TRIPOS>SUBSTRUCTURE
     1 1X8401      1 GROUP             4 A     1X8     0 **** 1X8 A 401
