@<TRIPOS>MOLECULE
3kh5_ADP_2_ligand
   39    41     1     0     0
SMALL
NO_CHARGES


@<TRIPOS>ATOM
     1 PB          15.3480    18.1600    28.8320 P.3          1 ADP283   0.0000
     2 O1B         15.5910    19.5790    28.4460 O.co2        1 ADP283   0.0000
     3 O2B         13.8080    17.7180    28.5400 O.co2        1 ADP283  -1.0000
     4 O3B         15.6000    17.8480    30.4000 O.co2        1 ADP283  -1.0000
     5 PA          15.7970    16.7030    26.6650 P.3          1 ADP283   0.0000
     6 O1A         16.1590    17.4130    25.4180 O.co2        1 ADP283   0.0000
     7 O2A         15.4310    15.1220    26.5110 O.co2        1 ADP283  -1.0000
     8 O3A         16.3050    17.1320    28.1030 O.3          1 ADP283   0.0000
     9 O5'         17.3330    16.1000    26.6310 O.3          1 ADP283   0.0000
    10 C5'         18.5170    16.8460    26.2080 C.3          1 ADP283   0.0000
    11 C4'         19.8390    16.1870    26.7110 C.3          1 ADP283   0.0000
    12 O4'         19.9340    16.4240    28.1520 O.3          1 ADP283   0.0000
    13 C3'         19.9420    14.6610    26.5010 C.3          1 ADP283   0.0000
    14 O3'         21.2840    14.3360    26.1150 O.3          1 ADP283   0.0000
    15 C2'         19.6110    14.0940    27.8850 C.3          1 ADP283   0.0000
    16 O2'         20.2400    12.8230    28.1180 O.3          1 ADP283   0.0000
    17 C1'         20.2040    15.1580    28.8020 C.3          1 ADP283   0.0000
    18 N9          19.5400    15.1480    30.1390 N.pl3        1 ADP283   0.0000
    19 C8          18.2340    15.1680    30.4320 C.2          1 ADP283   0.0000
    20 N7          18.0790    15.1530    31.7620 N.2          1 ADP283   0.0000
    21 C5          19.2900    15.1240    32.3090 C.ar         1 ADP283   0.0000
    22 C6          19.7710    15.0990    33.6120 C.ar         1 ADP283   0.0000
    23 N6          18.9370    15.0980    34.6480 N.pl3        1 ADP283   0.0000
    24 N1          21.1010    15.0740    33.8070 N.ar         1 ADP283   0.0000
    25 C2          21.9540    15.0740    32.7890 C.ar         1 ADP283   0.0000
    26 N3          21.5270    15.0980    31.5360 N.ar         1 ADP283   0.0000
    27 C4          20.2110    15.1230    31.2760 C.ar         1 ADP283   0.0000
    28 H5'1        18.4604    17.7748    26.5742 H            1 ADP283   0.0000
    29 H5'2        18.5350    16.8822    25.2088 H            1 ADP283   0.0000
    30 H4'         20.6135    16.6290    26.2585 H            1 ADP283   0.0000
    31 H3'         19.2843    14.3466    25.8164 H            1 ADP283   0.0000
    32 H5          21.3611    13.3487    25.9764 H            1 ADP283   0.0000
    33 H2'         18.6214    14.0280    28.0130 H            1 ADP283   0.0000
    34 H7          19.9284    12.1660    27.4315 H            1 ADP283   0.0000
    35 H1'         21.1896    15.0213    28.9019 H            1 ADP283   0.0000
    36 H9          17.4911    15.1906    29.7630 H            1 ADP283   0.0000
    37 H10         19.2979    15.0799    35.5804 H            1 ADP283   0.0000
    38 H11         17.9490    15.1154    34.4945 H            1 ADP283   0.0000
    39 H12         22.9369    15.0555    32.9723 H            1 ADP283   0.0000
@<TRIPOS>BOND
     1    1    2      ar
     2    1    3      ar
     3    1    4      ar
     4    1    8       1
     5    5    6      ar
     6    5    7      ar
     7    5    8       1
     8    5    9       1
     9    9   10       1
    10   10   11       1
    11   11   12       1
    12   11   13       1
    13   12   17       1
    14   13   14       1
    15   13   15       1
    16   15   16       1
    17   15   17       1
    18   17   18       1
    19   18   19       1
    20   18   27       1
    21   19   20       2
    22   20   21       1
    23   21   22      ar
    24   21   27      ar
    25   22   23       1
    26   22   24      ar
    27   24   25      ar
    28   25   26      ar
    29   26   27      ar
    30   25   39       1
    31   23   38       1
    32   23   37       1
    33   10   28       1
    34   10   29       1
    35   11   30       1
    36   13   31       1
    37   14   32       1
    38   15   33       1
    39   16   34       1
    40   17   35       1
    41   19   36       1
@<TRIPOS>SUBSTRUCTURE
     1 ADP283      1 GROUP             4 A     ADP     0 **** ADP A 283
