@<TRIPOS>MOLECULE
1uxy_EPU_1_ligand
   71    73     1     0     0
SMALL
NO_CHARGES


@<TRIPOS>ATOM
     1 N1U         16.2120    22.4760    13.7640 N.pl3        1 EPU402   0.0000
     2 C2U         17.5930    22.4450    13.7440 C.2          1 EPU402   0.0000
     3 N3U         18.1550    21.2410    13.5830 N.pl3        1 EPU402   0.0000
     4 C4U         17.4800    20.0880    13.4480 C.2          1 EPU402   0.0000
     5 C5U         15.9980    20.0940    13.5170 C.2          1 EPU402   0.0000
     6 C6U         15.3690    21.2770    13.6650 C.2          1 EPU402   0.0000
     7 O2U         18.2440    23.4640    13.8620 O.2          1 EPU402   0.0000
     8 O4U         18.0410    19.0200    13.2560 O.2          1 EPU402   0.0000
     9 C1D         15.5660    23.7680    13.9040 C.3          1 EPU402   0.0000
    10 C2D         14.9710    24.3190    12.6080 C.3          1 EPU402   0.0000
    11 O2D         15.8320    24.8070    11.6630 O.3          1 EPU402   0.0000
    12 C3D         13.9770    25.2450    13.1490 C.3          1 EPU402   0.0000
    13 C4D         13.5180    24.5810    14.4400 C.3          1 EPU402   0.0000
    14 O4D         14.4730    23.6070    14.7550 O.3          1 EPU402   0.0000
    15 O3D         14.4700    26.5830    13.1460 O.3          1 EPU402   0.0000
    16 C5D         12.1490    23.8840    14.1000 C.3          1 EPU402   0.0000
    17 O5D         12.3870    22.9190    13.0080 O.3          1 EPU402   0.0000
    18 PA          11.1270    22.2350    12.4080 P.3          1 EPU402   0.0000
    19 O1A         10.6210    23.3790    11.5700 O.co2        1 EPU402   0.0000
    20 O2A         11.7600    21.1870    11.5360 O.co2        1 EPU402  -1.0000
    21 O3A          9.9700    21.6480    13.1900 O.3          1 EPU402   0.0000
    22 PB          10.2390    20.8220    14.5030 P.3          1 EPU402   0.0000
    23 O1B          9.7550    21.5850    15.7190 O.co2        1 EPU402   0.0000
    24 O2B         11.6670    20.3330    14.6220 O.co2        1 EPU402  -1.0000
    25 C1           7.9870    19.8000    14.4190 C.3          1 EPU402   0.0000
    26 C2           7.2160    18.4900    14.5370 C.3          1 EPU402   0.0000
    27 C3           7.1880    17.6990    13.2540 C.3          1 EPU402   0.0000
    28 C4           6.5300    18.7430    12.2600 C.3          1 EPU402   0.0000
    29 C5           7.3260    20.0520    12.1350 C.3          1 EPU402   0.0000
    30 C6           6.6360    21.1010    11.2520 C.3          1 EPU402   0.0000
    31 C7           7.0700    18.2710    17.1010 C.2          1 EPU402   0.0000
    32 C8           7.8370    17.2820    18.0270 C.3          1 EPU402   0.0000
    33 N2           7.4450    18.0690    15.8840 N.am         1 EPU402   0.0000
    34 O1           9.3410    19.6300    14.1980 O.3          1 EPU402   0.0000
    35 O3           6.4300    16.6170    13.6330 O.3          1 EPU402   0.0000
    36 O4           6.3970    18.1700    10.9920 O.3          1 EPU402   0.0000
    37 O5           7.3640    20.5960    13.4440 O.3          1 EPU402   0.0000
    38 O6           5.4180    21.5780    11.7230 O.3          1 EPU402   0.0000
    39 O7           6.3060    19.0390    17.4930 O.2          1 EPU402   0.0000
    40 C1E          6.3340    14.3740    14.2960 C.2          1 EPU402   0.0000
    41 O1E          6.6250    13.1460    14.1460 O.2          1 EPU402   0.0000
    42 O2E          5.5490    14.7500    15.2330 O.3          1 EPU402   0.0000
    43 C2E          6.9060    15.3820    13.3580 C.2          1 EPU402   0.0000
    44 C3E          7.7640    15.0830    12.3590 C.2          1 EPU402   0.0000
    45 H3U         19.1538    21.1967    13.5616 H            1 EPU402   0.0000
    46 H5U         15.4787    19.2417    13.4553 H            1 EPU402   0.0000
    47 H6U         14.3716    21.3359    13.7056 H            1 EPU402   0.0000
    48 H1D         16.2070    24.4295    14.2934 H            1 EPU402   0.0000
    49 H2D         14.4658    23.5697    12.1799 H            1 EPU402   0.0000
    50 H6          16.0988    24.0695    11.0425 H            1 EPU402   0.0000
    51 H3D         13.1969    25.2256    12.5236 H            1 EPU402   0.0000
    52 H4D         13.4165    25.2472    15.1788 H            1 EPU402   0.0000
    53 H9          15.2959    26.6352    13.7075 H            1 EPU402   0.0000
    54 H5D1        11.4825    24.5697    13.8076 H            1 EPU402   0.0000
    55 H5D2        11.8025    23.4051    14.9066 H            1 EPU402   0.0000
    56 H12          7.8901    20.2769    15.2926 H            1 EPU402   0.0000
    57 H13          6.2729    18.8183    14.5889 H            1 EPU402   0.0000
    58 H14          8.1051    17.4292    12.9604 H            1 EPU402   0.0000
    59 H15          5.6160    18.9646    12.6000 H            1 EPU402   0.0000
    60 H16          8.2518    19.8693    11.8041 H            1 EPU402   0.0000
    61 H17          6.4788    20.6910    10.3536 H            1 EPU402   0.0000
    62 H18          7.2559    21.8801    11.1590 H            1 EPU402   0.0000
    63 H19          7.5558    17.4274    18.9756 H            1 EPU402   0.0000
    64 H20          7.6272    16.3422    17.7574 H            1 EPU402   0.0000
    65 H21          8.8206    17.4412    17.9428 H            1 EPU402   0.0000
    66 H22          8.1520    17.3618    15.8813 H            1 EPU402   0.0000
    67 H23          5.8154    17.3587    11.0522 H            1 EPU402   0.0000
    68 H24          5.5511    22.0072    12.6163 H            1 EPU402   0.0000
    69 H3E1         8.0667    14.1393    12.2255 H            1 EPU402   0.0000
    70 H3E2         8.0967    15.8053    11.7527 H            1 EPU402   0.0000
    71 H2E          5.1567    14.0748    15.8577 H            1 EPU402   0.0000
@<TRIPOS>BOND
     1    1    2       1
     2    1    6       1
     3    1    9       1
     4    2    3       1
     5    2    7       2
     6    3    4       1
     7    4    5       1
     8    4    8       2
     9    5    6       2
    10    9   10       1
    11    9   14       1
    12   10   11       1
    13   10   12       1
    14   12   13       1
    15   12   15       1
    16   13   14       1
    17   13   16       1
    18   16   17       1
    19   17   18       1
    20   18   19      ar
    21   18   20      ar
    22   18   21       1
    23   21   22       1
    24   22   23      ar
    25   22   24      ar
    26   22   34       1
    27   25   26       1
    28   25   34       1
    29   25   37       1
    30   26   27       1
    31   26   33       1
    32   27   28       1
    33   27   35       1
    34   28   29       1
    35   28   36       1
    36   29   30       1
    37   29   37       1
    38   30   38       1
    39   31   32       1
    40   31   33      am
    41   31   39       2
    42   35   43       1
    43   40   41       2
    44   40   42       1
    45   40   43       1
    46   43   44       2
    47    3   45       1
    48    5   46       1
    49    6   47       1
    50    9   48       1
    51   10   49       1
    52   11   50       1
    53   12   51       1
    54   13   52       1
    55   15   53       1
    56   16   54       1
    57   16   55       1
    58   44   70       1
    59   44   69       1
    60   25   56       1
    61   26   57       1
    62   27   58       1
    63   28   59       1
    64   29   60       1
    65   30   61       1
    66   30   62       1
    67   32   63       1
    68   32   64       1
    69   32   65       1
    70   33   66       1
    71   36   67       1
    72   38   68       1
    73   42   71       1
@<TRIPOS>SUBSTRUCTURE
     1 EPU402      1 GROUP             4 A     EPU     0 **** EPU A 402
