@<TRIPOS>MOLECULE
2zjf_BSU_1_ligand
   28    29     1     0     0
SMALL
NO_CHARGES


@<TRIPOS>ATOM
     1 N7          -3.6830    -0.1380    19.8580 N.am         1 BSU360   0.0000
     2 C8          -4.1800     1.1190    19.8610 C.2          1 BSU360   0.0000
     3 N9          -3.2250     2.0720    19.7920 N.am         1 BSU360   0.0000
     4 O11         -5.3830     1.3590    19.9270 O.2          1 BSU360   0.0000
     5 C5          -4.3190    -1.3350    19.9030 C.ar         1 BSU360   0.0000
     6 C4          -3.4380    -2.4730    19.9080 C.ar         1 BSU360   0.0000
     7 C3          -3.9710    -3.8030    19.9560 C.ar         1 BSU360   0.0000
     8 C2          -5.3930    -3.9900    19.9960 C.ar         1 BSU360   0.0000
     9 C1          -6.2840    -2.8840    19.9910 C.ar         1 BSU360   0.0000
    10 C6          -5.7510    -1.5540    19.9460 C.ar         1 BSU360   0.0000
    11 C10         -3.3470     3.4330    19.7840 C.ar         1 BSU360   0.0000
    12 C16         -4.5830     4.1970    19.8500 C.ar         1 BSU360   0.0000
    13 C15         -4.5700     5.6250    19.8400 C.ar         1 BSU360   0.0000
    14 C14         -3.3080     6.3060    19.7630 C.ar         1 BSU360   0.0000
    15 C13         -2.0690     5.5700    19.6950 C.ar         1 BSU360   0.0000
    16 C12         -2.0980     4.1390    19.7060 C.ar         1 BSU360   0.0000
    17 H1          -2.6855    -0.1944    19.8158 H            1 BSU360   0.0000
    18 H2          -2.2869     1.7297    19.7387 H            1 BSU360   0.0000
    19 H3          -2.4480    -2.3352    19.8778 H            1 BSU360   0.0000
    20 H4          -3.3576    -4.5928    19.9615 H            1 BSU360   0.0000
    21 H5          -5.7643    -4.9180    20.0281 H            1 BSU360   0.0000
    22 H6          -7.2727    -3.0315    20.0186 H            1 BSU360   0.0000
    23 H7          -6.3726    -0.7706    19.9443 H            1 BSU360   0.0000
    24 H8          -5.4570     3.7140    19.9033 H            1 BSU360   0.0000
    25 H9          -5.4249     6.1418    19.8858 H            1 BSU360   0.0000
    26 H10         -3.2877     7.3058    19.7564 H            1 BSU360   0.0000
    27 H11         -1.1967     6.0559    19.6406 H            1 BSU360   0.0000
    28 H12         -1.2410     3.6258    19.6590 H            1 BSU360   0.0000
@<TRIPOS>BOND
     1    1    2      am
     2    1    5       1
     3    2    3      am
     4    2    4       2
     5    3   11       1
     6    5    6      ar
     7    5   10      ar
     8    6    7      ar
     9    7    8      ar
    10    8    9      ar
    11    9   10      ar
    12   11   12      ar
    13   11   16      ar
    14   12   13      ar
    15   13   14      ar
    16   14   15      ar
    17   15   16      ar
    18    1   17       1
    19    3   18       1
    20    6   19       1
    21    7   20       1
    22    8   21       1
    23    9   22       1
    24   10   23       1
    25   12   24       1
    26   13   25       1
    27   14   26       1
    28   15   27       1
    29   16   28       1
@<TRIPOS>SUBSTRUCTURE
     1 BSU360      1 GROUP             4 A     BSU     0 **** BSU A 360
