@<TRIPOS>MOLECULE
1sn0_T44_1_ligand
   35    36     1     0     0
SMALL
NO_CHARGES


@<TRIPOS>ATOM
     1 C1         -73.7880   -23.9670   -17.8400 C.ar         1 T44602   0.0000
     2 C2         -73.2600   -23.3480   -18.9910 C.ar         1 T44602   0.0000
     3 C3         -72.0240   -23.7510   -19.4550 C.ar         1 T44602   0.0000
     4 C4         -71.3500   -24.7830   -18.7100 C.ar         1 T44602   0.0000
     5 C5         -71.8910   -25.4340   -17.5190 C.ar         1 T44602   0.0000
     6 C6         -73.1330   -24.9790   -17.1170 C.ar         1 T44602   0.0000
     7 C7         -75.1370   -23.5380   -17.3280 C.3          1 T44602   0.0000
     8 C8         -76.1800   -24.6240   -17.6000 C.3          1 T44602   0.0000
     9 C9         -76.7590   -25.2070   -16.3380 C.2          1 T44602   0.0000
    10 C1'        -69.0320   -24.8960   -18.8660 C.ar         1 T44602   0.0000
    11 C2'        -68.4680   -23.8670   -17.9400 C.ar         1 T44602   0.0000
    12 C3'        -67.0330   -23.8860   -17.7830 C.ar         1 T44602   0.0000
    13 C4'        -66.1100   -24.8120   -18.4980 C.ar         1 T44602   0.0000
    14 C5'        -66.6910   -25.7260   -19.3640 C.ar         1 T44602   0.0000
    15 C6'        -68.1460   -25.7460   -19.5310 C.ar         1 T44602   0.0000
    16 N8         -77.2070   -23.9470   -18.3840 N.4          1 T44602   1.0000
    17 O4         -70.2240   -25.1440   -19.2270 O.3          1 T44602   0.0000
    18 O4'        -64.7900   -24.7790   -18.3300 O.3          1 T44602   0.0000
    19 O9         -76.2180   -25.0110   -15.2610 O.co2        1 T44602   0.0000
    20 O10        -77.7880   -25.8940   -16.3930 O.co2        1 T44602  -1.0000
    21 I3         -70.8980   -23.0920   -21.0980 I            1 T44602   0.0000
    22 I3'        -66.0050   -22.5580   -16.5320 I            1 T44602   0.0000
    23 I5         -70.7930   -26.9260   -16.5390 I            1 T44602   0.0000
    24 I5'        -65.7000   -27.1450   -20.4950 I            1 T44602   0.0000
    25 H1         -73.7715   -22.6299   -19.4629 H            1 T44602   0.0000
    26 H2         -73.5681   -25.3722   -16.3070 H            1 T44602   0.0000
    27 H3         -75.4116   -22.6943   -17.7893 H            1 T44602   0.0000
    28 H4         -75.0793   -23.3757   -16.3429 H            1 T44602   0.0000
    29 H5         -75.7685   -25.3531   -18.1468 H            1 T44602   0.0000
    30 H2'        -69.0473   -23.2080   -17.4602 H            1 T44602   0.0000
    31 H6'        -68.5319   -26.4154   -20.1658 H            1 T44602   0.0000
    32 H8         -77.9362   -24.5938   -18.6074 H            1 T44602   0.0000
    33 H9         -77.5853   -23.1884   -17.8536 H            1 T44602   0.0000
    34 H4'        -64.2062   -25.4189   -18.8298 H            1 T44602   0.0000
    35 H11        -76.8036   -23.5948   -19.2285 H            1 T44602   0.0000
@<TRIPOS>BOND
     1    1    2      ar
     2    1    6      ar
     3    1    7       1
     4    2    3      ar
     5    3    4      ar
     6    3   21       1
     7    4    5      ar
     8    4   17       1
     9    5    6      ar
    10    5   23       1
    11    7    8       1
    12    8    9       1
    13    8   16       1
    14    9   19      ar
    15    9   20      ar
    16   10   11      ar
    17   10   15      ar
    18   10   17       1
    19   11   12      ar
    20   12   13      ar
    21   12   22       1
    22   13   14      ar
    23   13   18       1
    24   14   15      ar
    25   14   24       1
    26    2   25       1
    27    6   26       1
    28    7   27       1
    29    7   28       1
    30    8   29       1
    31   11   30       1
    32   15   31       1
    33   16   32       1
    34   16   33       1
    35   18   34       1
    36   16   35       1
@<TRIPOS>SUBSTRUCTURE
     1 T44602      1 GROUP             4 B     T44     0 **** T44 B 602
