@<TRIPOS>MOLECULE
4q0k_GA3_1_ligand
   46    50     1     0     0
SMALL
NO_CHARGES


@<TRIPOS>ATOM
     1 O71          0.8840    20.1060    34.2810 O.co2        1 GA3201   0.0000
     2 C7           1.4510    20.8740    33.4710 C.2          1 GA3201   0.0000
     3 O72          1.5120    20.6320    32.2440 O.co2        1 GA3201  -1.0000
     4 C6           2.0690    22.1480    34.0220 C.3          1 GA3201   0.0000
     5 C5           3.3410    22.6290    33.2990 C.3          1 GA3201   0.0000
     6 C8           1.0960    23.3550    33.9870 C.3          1 GA3201   0.0000
     7 C15         -0.0350    23.3290    32.9440 C.3          1 GA3201   0.0000
     8 C16         -0.8630    24.4790    33.4340 C.2          1 GA3201   0.0000
     9 C17         -1.7660    25.1440    32.7370 C.2          1 GA3201   0.0000
    10 C13         -0.5660    24.7590    34.8980 C.3          1 GA3201   0.0000
    11 C14          0.2620    23.5120    35.2620 C.3          1 GA3201   0.0000
    12 O13         -1.7820    24.9190    35.6560 O.3          1 GA3201   0.0000
    13 C12          0.3060    26.0190    35.0630 C.3          1 GA3201   0.0000
    14 C11          1.7840    25.7070    34.8180 C.3          1 GA3201   0.0000
    15 C9           1.9910    24.6040    33.7730 C.3          1 GA3201   0.0000
    16 C10          3.4270    24.1040    33.7260 C.3          1 GA3201   0.0000
    17 O92          3.9990    23.9280    35.1000 O.3          1 GA3201   0.0000
    18 C1           4.4740    24.8370    32.9360 C.2          1 GA3201   0.0000
    19 C2           5.6600    24.2320    32.8460 C.2          1 GA3201   0.0000
    20 C3           5.7950    22.7340    32.9670 C.3          1 GA3201   0.0000
    21 O31          5.6930    22.2210    31.6490 O.3          1 GA3201   0.0000
    22 C4           4.6880    22.0820    33.8350 C.3          1 GA3201   0.0000
    23 C18          4.8010    20.5560    33.9160 C.3          1 GA3201   0.0000
    24 C19          4.7360    22.7870    35.1730 C.2          1 GA3201   0.0000
    25 O91          5.3320    22.5700    36.1840 O.2          1 GA3201   0.0000
    26 H1           2.3090    21.9797    34.9781 H            1 GA3201   0.0000
    27 H2           3.2663    22.5311    32.3066 H            1 GA3201   0.0000
    28 H3          -0.5433    22.4681    32.9684 H            1 GA3201   0.0000
    29 H4           0.3093    23.4867    32.0185 H            1 GA3201   0.0000
    30 H5          -2.2666    25.8996    33.1593 H            1 GA3201   0.0000
    31 H6          -1.9493    24.8920    31.7868 H            1 GA3201   0.0000
    32 H7           0.8382    23.6716    36.0636 H            1 GA3201   0.0000
    33 H8          -0.3205    22.7154    35.4234 H            1 GA3201   0.0000
    34 H9          -2.3252    24.0816    35.5955 H            1 GA3201   0.0000
    35 H10          0.1970    26.3714    35.9925 H            1 GA3201   0.0000
    36 H11          0.0059    26.7113    34.4067 H            1 GA3201   0.0000
    37 H12          2.1959    25.4121    35.6802 H            1 GA3201   0.0000
    38 H13          2.2380    26.5390    34.4991 H            1 GA3201   0.0000
    39 H14          1.7713    24.9875    32.8760 H            1 GA3201   0.0000
    40 H15          4.2937    25.7213    32.5054 H            1 GA3201   0.0000
    41 H16          6.4794    24.7849    32.6947 H            1 GA3201   0.0000
    42 H17          6.6929    22.5085    33.3452 H            1 GA3201   0.0000
    43 H18          5.1089    22.8208    31.1021 H            1 GA3201   0.0000
    44 H19          5.7018    20.3069    34.2716 H            1 GA3201   0.0000
    45 H20          4.0922    20.2012    34.5256 H            1 GA3201   0.0000
    46 H21          4.6828    20.1641    33.0036 H            1 GA3201   0.0000
@<TRIPOS>BOND
     1    1    2      ar
     2    2    3      ar
     3    2    4       1
     4    4    5       1
     5    4    6       1
     6    5   16       1
     7    5   22       1
     8    6    7       1
     9    6   11       1
    10    6   15       1
    11    7    8       1
    12    8    9       2
    13    8   10       1
    14   10   11       1
    15   10   12       1
    16   10   13       1
    17   13   14       1
    18   14   15       1
    19   15   16       1
    20   16   17       1
    21   16   18       1
    22   17   24       1
    23   18   19       2
    24   19   20       1
    25   20   21       1
    26   20   22       1
    27   22   23       1
    28   22   24       1
    29   24   25       2
    30   23   46       1
    31    4   26       1
    32    5   27       1
    33    7   28       1
    34    7   29       1
    35    9   30       1
    36    9   31       1
    37   11   32       1
    38   11   33       1
    39   12   34       1
    40   13   35       1
    41   13   36       1
    42   14   37       1
    43   14   38       1
    44   15   39       1
    45   18   40       1
    46   19   41       1
    47   20   42       1
    48   21   43       1
    49   23   44       1
    50   23   45       1
@<TRIPOS>SUBSTRUCTURE
     1 GA3201      1 GROUP             4 A     GA3     0 **** GA3 A 201
