@<TRIPOS>MOLECULE
2y30_SM8_2_ligand
  110   117     1     0     0
SMALL
NO_CHARGES


@<TRIPOS>ATOM
     1 N4          22.4760    33.0370   -18.7920 N.pl3        1 SM8501   0.0000
     2 CL4         26.5740    36.0940   -14.9510 Cl           1 SM8501   0.0000
     3 C1A         34.0190    22.5940   -25.6880 C.ar         1 SM8501   0.0000
     4 O1A         32.4920    20.8600   -26.4320 O.3          1 SM8501   0.0000
     5 C1B         33.6610    21.1990   -25.8510 C.ar         1 SM8501   0.0000
     6 O1B         32.8850    18.6030   -25.6520 O.3          1 SM8501   0.0000
     7 C1C         34.5410    20.1930   -25.3980 C.ar         1 SM8501   0.0000
     8 O1C         39.2510    17.8190   -22.9020 O.2          1 SM8501   0.0000
     9 C1D         34.2210    18.7770   -25.6800 C.3          1 SM8501   0.0000
    10 O1D         37.3440    14.9630   -22.6210 O.3          1 SM8501   0.0000
    11 C1E         34.8890    17.8160   -24.7120 C.3          1 SM8501   0.0000
    12 C1F         34.4660    16.2940   -24.7500 C.3          1 SM8501   0.0000
    13 O1F         37.9180    16.6470   -24.7330 O.3          1 SM8501   0.0000
    14 C1G         35.5480    15.3130   -24.1590 C.3          1 SM8501   0.0000
    15 O1G         37.8670    19.8350   -24.1350 O.2          1 SM8501   0.0000
    16 C1H         36.4030    15.9450   -23.0680 C.3          1 SM8501   0.0000
    17 O1H         34.9520    18.3080   -23.3570 O.3          1 SM8501   0.0000
    18 C1I         36.4480    17.1080   -20.8170 C.2          1 SM8501   0.0000
    19 C1J         35.5520    16.3770   -21.8630 C.3          1 SM8501   0.0000
    20 C1K         35.9870    17.2310   -19.3890 C.3          1 SM8501   0.0000
    21 C1L         37.6450    17.6500   -21.1900 C.2          1 SM8501   0.0000
    22 C1M         38.0820    17.5880   -22.6030 C.2          1 SM8501   0.0000
    23 C1N         37.1610    17.0950   -23.6100 C.3          1 SM8501   0.0000
    24 C1O         36.2050    18.2270   -24.0780 C.3          1 SM8501   0.0000
    25 C1P         36.7370    19.5520   -24.4050 C.2          1 SM8501   0.0000
    26 C1Q         35.8260    20.5710   -24.8640 C.ar         1 SM8501   0.0000
    27 C1R         36.1310    21.9260   -24.6670 C.ar         1 SM8501   0.0000
    28 C1S         35.2240    22.9360   -25.0820 C.ar         1 SM8501   0.0000
    29 C2A         33.0590    23.6560   -26.0970 C.3          1 SM8501   0.0000
    30 O2A         33.7270    24.8600   -26.2750 O.3          1 SM8501   0.0000
    31 C2B         32.0130    23.8200   -25.0350 C.3          1 SM8501   0.0000
    32 O2B         30.7840    26.9140   -26.7930 O.3          1 SM8501   0.0000
    33 C2C         31.0110    24.9240   -25.3980 C.3          1 SM8501   0.0000
    34 O2C         30.5310    28.1680   -24.9220 O.2          1 SM8501   0.0000
    35 C2D         31.7210    26.1860   -26.0180 C.3          1 SM8501   0.0000
    36 O2D         30.3020    25.3080   -24.2060 O.3          1 SM8501   0.0000
    37 C2E         32.9200    25.7970   -26.9240 C.3          1 SM8501   0.0000
    38 C2F         33.7480    27.0170   -27.2840 C.3          1 SM8501   0.0000
    39 C2G         30.2210    28.0180   -26.0760 C.2          1 SM8501   0.0000
    40 C2H         29.2430    28.9290   -26.7790 C.3          1 SM8501   0.0000
    41 C3A         28.9730    25.8080   -24.4720 C.2          1 SM8501   0.0000
    42 O3A         28.4660    25.6200   -25.5740 O.2          1 SM8501   0.0000
    43 C3B         28.3040    26.4700   -23.5000 C.2          1 SM8501   0.0000
    44 O3B         24.0060    31.6040   -18.0610 O.3          1 SM8501   0.0000
    45 C3C         27.0570    26.8760   -23.6980 C.2          1 SM8501   0.0000
    46 C3D         26.2520    27.0790   -22.6450 C.3          1 SM8501   0.0000
    47 C3E         25.5880    28.2450   -22.5120 C.2          1 SM8501   0.0000
    48 C3F         25.1170    28.6110   -21.3090 C.2          1 SM8501   0.0000
    49 C3G         24.5160    29.8000   -21.1500 C.2          1 SM8501   0.0000
    50 C3H         23.7350    30.0100   -20.0780 C.2          1 SM8501   0.0000
    51 C3I         23.0240    31.1410   -19.9700 C.2          1 SM8501   0.0000
    52 C3J         23.1600    31.8990   -18.8860 C.2          1 SM8501   0.0000
    53 C4A         22.9270    33.9470   -18.0310 C.2          1 SM8501   0.0000
    54 O4A         20.7380    34.3670   -16.9920 O.2          1 SM8501   0.0000
    55 C4B         22.0940    34.4880   -16.9570 C.2          1 SM8501   0.0000
    56 O4B         24.7220    37.3090   -12.8620 O.3          1 SM8501   0.0000
    57 C4C         22.7370    35.1940   -15.8910 C.ar         1 SM8501   0.0000
    58 O4C         24.9540    34.7150   -16.8800 O.2          1 SM8501   0.0000
    59 C4D         21.9920    35.7920   -14.8730 C.ar         1 SM8501   0.0000
    60 O4D         25.1750    33.5540   -18.8180 O.3          1 SM8501   0.0000
    61 C4E         22.6620    36.5280   -13.8340 C.ar         1 SM8501   0.0000
    62 O4E         34.1960    15.9230   -26.1130 O.3          1 SM8501   0.0000
    63 C4F         24.0740    36.6350   -13.8470 C.ar         1 SM8501   0.0000
    64 C4G         24.8330    35.9920   -14.9040 C.ar         1 SM8501   0.0000
    65 C4H         24.1910    35.3130   -15.9000 C.ar         1 SM8501   0.0000
    66 C4I         24.4060    34.0830   -17.9200 C.2          1 SM8501   0.0000
    67 H1          21.6295    33.1713   -19.3072 H            1 SM8501   0.0000
    68 H1A         32.2494    19.8962   -26.5422 H            1 SM8501   0.0000
    69 H1B         32.6506    17.9350   -24.9458 H            1 SM8501   0.0000
    70 H1D         34.5431    18.5632   -26.6023 H            1 SM8501   0.0000
    71 H5          37.9187    15.3548   -21.9025 H            1 SM8501   0.0000
    72 H1F         33.6233    16.1882   -24.2221 H            1 SM8501   0.0000
    73 H7          38.4371    17.4130   -25.1121 H            1 SM8501   0.0000
    74 H1G1        36.1487    15.0182   -24.9021 H            1 SM8501   0.0000
    75 H1G2        35.0791    14.5180   -23.7741 H            1 SM8501   0.0000
    76 H1J1        35.1406    15.5693   -21.4407 H            1 SM8501   0.0000
    77 H1J2        34.8299    16.9961   -22.1717 H            1 SM8501   0.0000
    78 H1K1        36.6760    17.7238   -18.8576 H            1 SM8501   0.0000
    79 H1K2        35.1222    17.7323   -19.3599 H            1 SM8501   0.0000
    80 H1K3        35.8566    16.3186   -19.0011 H            1 SM8501   0.0000
    81 H1L         38.2277    18.0899   -20.5067 H            1 SM8501   0.0000
    82 H1R         36.9937    22.1823   -24.2310 H            1 SM8501   0.0000
    83 H1S         35.4523    23.8989   -24.9380 H            1 SM8501   0.0000
    84 H2A         32.6197    23.3916   -26.9556 H            1 SM8501   0.0000
    85 H2B1        32.4600    24.0577   -24.1726 H            1 SM8501   0.0000
    86 H2B2        31.5203    22.9564   -24.9281 H            1 SM8501   0.0000
    87 H2C         30.3565    24.5619   -26.0617 H            1 SM8501   0.0000
    88 H2D         32.0511    26.7695   -25.2760 H            1 SM8501   0.0000
    89 H2E         32.5671    25.3886   -27.7658 H            1 SM8501   0.0000
    90 H2F1        33.1694    27.6873   -27.7486 H            1 SM8501   0.0000
    91 H2F2        34.1243    27.4221   -26.4508 H            1 SM8501   0.0000
    92 H2F3        34.4958    26.7454   -27.8898 H            1 SM8501   0.0000
    93 H2H1        28.9429    29.6454   -26.1492 H            1 SM8501   0.0000
    94 H2H2        29.6871    29.3466   -27.5717 H            1 SM8501   0.0000
    95 H2H3        28.4514    28.3982   -27.0816 H            1 SM8501   0.0000
    96 H3B         28.7531    26.6545   -22.6258 H            1 SM8501   0.0000
    97 H31         24.1963    32.2210   -17.2973 H            1 SM8501   0.0000
    98 H3C         26.7193    27.0297   -24.6266 H            1 SM8501   0.0000
    99 H3D1        26.8173    26.9751   -21.8267 H            1 SM8501   0.0000
   100 H3D2        25.5616    26.3559   -22.6673 H            1 SM8501   0.0000
   101 H3E         25.4468    28.8353   -23.3067 H            1 SM8501   0.0000
   102 H3F         25.2146    27.9944   -20.5278 H            1 SM8501   0.0000
   103 H3G         24.6488    30.5252   -21.8256 H            1 SM8501   0.0000
   104 H3H         23.6836    29.3192   -19.3568 H            1 SM8501   0.0000
   105 H3I         22.3959    31.4128   -20.6992 H            1 SM8501   0.0000
   106 H4B         25.7193    37.3805   -12.8776 H            1 SM8501   0.0000
   107 H4D         20.9955    35.7090   -14.8660 H            1 SM8501   0.0000
   108 H4E         22.1325    36.9624   -13.1053 H            1 SM8501   0.0000
   109 H43         33.9270    14.9606   -26.1495 H            1 SM8501   0.0000
   110 H44         26.1679    33.6457   -18.7429 H            1 SM8501   0.0000
@<TRIPOS>BOND
     1    1   52       1
     2    1   53       1
     3    2   64       1
     4    3    5      ar
     5    3   28      ar
     6    3   29       1
     7    4    5       1
     8    5    7      ar
     9    6    9       1
    10    7    9       1
    11    7   26      ar
    12    8   22       2
    13    9   11       1
    14   10   16       1
    15   11   12       1
    16   11   17       1
    17   11   24       1
    18   12   14       1
    19   12   62       1
    20   13   23       1
    21   14   16       1
    22   15   25       2
    23   16   19       1
    24   16   23       1
    25   17   24       1
    26   18   19       1
    27   18   20       1
    28   18   21       2
    29   21   22       1
    30   22   23       1
    31   23   24       1
    32   24   25       1
    33   25   26       1
    34   26   27      ar
    35   27   28      ar
    36   29   30       1
    37   29   31       1
    38   30   37       1
    39   31   33       1
    40   32   35       1
    41   32   39       1
    42   33   35       1
    43   33   36       1
    44   34   39       2
    45   35   37       1
    46   36   41       1
    47   37   38       1
    48   39   40       1
    49   41   42       2
    50   41   43       1
    51   43   45       2
    52   44   52       1
    53   45   46       1
    54   46   47       1
    55   47   48       2
    56   48   49       1
    57   49   50       2
    58   50   51       1
    59   51   52       2
    60   53   55       1
    61   53   66       2
    62   54   55       2
    63   55   57       1
    64   56   63       1
    65   57   59      ar
    66   57   65      ar
    67   58   65       1
    68   58   66       1
    69   59   61      ar
    70   60   66       1
    71   61   63      ar
    72   63   64      ar
    73   64   65      ar
    74    1   67       1
    75    4   68       1
    76    6   69       1
    77    9   70       1
    78   10   71       1
    79   12   72       1
    80   13   73       1
    81   14   74       1
    82   14   75       1
    83   19   76       1
    84   19   77       1
    85   20   78       1
    86   20   79       1
    87   20   80       1
    88   21   81       1
    89   27   82       1
    90   28   83       1
    91   29   84       1
    92   31   85       1
    93   31   86       1
    94   33   87       1
    95   35   88       1
    96   37   89       1
    97   38   90       1
    98   38   91       1
    99   38   92       1
   100   40   93       1
   101   40   94       1
   102   40   95       1
   103   43   96       1
   104   44   97       1
   105   45   98       1
   106   46   99       1
   107   46  100       1
   108   47  101       1
   109   48  102       1
   110   49  103       1
   111   50  104       1
   112   51  105       1
   113   62  109       1
   114   56  106       1
   115   59  107       1
   116   61  108       1
   117   60  110       1
@<TRIPOS>SUBSTRUCTURE
     1 SM8501      1 GROUP             4 B     SM8     0 **** SM8 B 501
