@<TRIPOS>MOLECULE
2x6t_NAP_2_ligand
   73    77     1     0     0
SMALL
NO_CHARGES


@<TRIPOS>ATOM
     1 PA          69.9690   -24.0850   -62.7830 P.3          1 NAP1308   0.0000
     2 O1A         70.3220   -24.8130   -61.5480 O.co2        1 NAP1308   0.0000
     3 O2A         69.2120   -24.9070   -63.7620 O.co2        1 NAP1308  -1.0000
     4 O5B         69.1730   -22.7510   -62.3860 O.3          1 NAP1308   0.0000
     5 C5B         68.2190   -22.2130   -63.2740 C.3          1 NAP1308   0.0000
     6 C4B         66.8320   -22.2300   -62.6420 C.3          1 NAP1308   0.0000
     7 O4B         65.9700   -21.2780   -63.2570 O.3          1 NAP1308   0.0000
     8 C3B         66.1410   -23.5790   -62.7900 C.3          1 NAP1308   0.0000
     9 O3B         65.5870   -23.8570   -61.5250 O.3          1 NAP1308   0.0000
    10 C2B         65.1580   -23.3420   -63.9430 C.3          1 NAP1308   0.0000
    11 O2B         64.0550   -24.2340   -64.0760 O.3          1 NAP1308   0.0000
    12 C1B         64.7600   -21.8920   -63.6910 C.3          1 NAP1308   0.0000
    13 N9A         64.3490   -21.1020   -64.8570 N.pl3        1 NAP1308   0.0000
    14 C8A         64.3950   -21.4290   -66.1880 C.2          1 NAP1308   0.0000
    15 N7A         63.9690   -20.3600   -66.9000 N.2          1 NAP1308   0.0000
    16 C5A         63.6730   -19.3520   -66.0560 C.ar         1 NAP1308   0.0000
    17 C6A         63.1950   -18.0550   -66.2510 C.ar         1 NAP1308   0.0000
    18 N6A         62.9430   -17.5710   -67.4700 N.pl3        1 NAP1308   0.0000
    19 N1A         62.9740   -17.2530   -65.1530 N.ar         1 NAP1308   0.0000
    20 C2A         63.2280   -17.7320   -63.8820 C.ar         1 NAP1308   0.0000
    21 N3A         63.6920   -19.0140   -63.6910 N.ar         1 NAP1308   0.0000
    22 C4A         63.9090   -19.8130   -64.7630 C.ar         1 NAP1308   0.0000
    23 O3          71.2770   -23.5350   -63.5110 O.3          1 NAP1308   0.0000
    24 PN          72.5270   -22.7780   -62.8550 P.3          1 NAP1308   0.0000
    25 O1N         73.6920   -23.6860   -62.9090 O.co2        1 NAP1308   0.0000
    26 O2N         72.0880   -22.1530   -61.5920 O.co2        1 NAP1308  -1.0000
    27 O5D         72.7250   -21.5830   -63.8920 O.3          1 NAP1308   0.0000
    28 C5D         72.0750   -20.3650   -63.6340 C.3          1 NAP1308   0.0000
    29 C4D         72.3850   -19.4110   -64.7700 C.3          1 NAP1308   0.0000
    30 O4D         73.7810   -19.4170   -65.0200 O.3          1 NAP1308   0.0000
    31 C3D         71.7270   -19.8850   -66.0500 C.3          1 NAP1308   0.0000
    32 O3D         71.4500   -18.8040   -66.9090 O.3          1 NAP1308   0.0000
    33 C2D         72.7950   -20.7490   -66.6690 C.3          1 NAP1308   0.0000
    34 O2D         72.5850   -20.8400   -68.0520 O.3          1 NAP1308   0.0000
    35 C1D         74.0260   -19.9350   -66.3170 C.3          1 NAP1308   0.0000
    36 N1N         75.3070   -20.6570   -66.3260 N.ar         1 NAP1308   1.0000
    37 C2N         75.6040   -21.6460   -65.4230 C.ar         1 NAP1308   0.0000
    38 C3N         76.8500   -22.2750   -65.4710 C.ar         1 NAP1308   0.0000
    39 C7N         77.2150   -23.4130   -64.5510 C.2          1 NAP1308   0.0000
    40 O7N         78.4000   -24.1360   -64.8270 O.2          1 NAP1308   0.0000
    41 N7N         76.4420   -23.7150   -63.5050 N.am         1 NAP1308   0.0000
    42 C4N         77.7830   -21.8720   -66.4250 C.ar         1 NAP1308   0.0000
    43 C5N         77.4660   -20.8620   -67.3290 C.ar         1 NAP1308   0.0000
    44 C6N         76.2200   -20.2620   -67.2590 C.ar         1 NAP1308   0.0000
    45 P2B         63.6280   -24.8680   -65.5440 P.3          1 NAP1308   0.0000
    46 O1X         63.2060   -26.3020   -65.2470 O.co2        1 NAP1308   0.0000
    47 O2X         62.4810   -24.1590   -66.2310 O.co2        1 NAP1308  -1.0000
    48 O3X         64.7610   -24.9060   -66.5260 O.co2        1 NAP1308  -1.0000
    49 H5B1        68.2054   -22.7582   -64.1122 H            1 NAP1308   0.0000
    50 H5B2        68.4690   -21.2700   -63.4937 H            1 NAP1308   0.0000
    51 H4B         66.9153   -22.0125   -61.6695 H            1 NAP1308   0.0000
    52 H3B         66.8054   -24.2834   -63.0400 H            1 NAP1308   0.0000
    53 H5          64.9366   -23.1378   -61.2806 H            1 NAP1308   0.0000
    54 H2B         65.6777   -23.3710   -64.7969 H            1 NAP1308   0.0000
    55 H1B         64.0659   -21.8407   -62.9729 H            1 NAP1308   0.0000
    56 H8A         64.6919   -22.3056   -66.5668 H            1 NAP1308   0.0000
    57 H6A1        62.6011   -16.6373   -67.5764 H            1 NAP1308   0.0000
    58 H6A2        63.0962   -18.1423   -68.2763 H            1 NAP1308   0.0000
    59 H2A         63.0728   -17.1401   -63.0911 H            1 NAP1308   0.0000
    60 H5D1        72.4046   -19.9819   -62.7711 H            1 NAP1308   0.0000
    61 H5D2        71.0878   -20.5139   -63.5772 H            1 NAP1308   0.0000
    62 H4D         72.0767   -18.4874   -64.5421 H            1 NAP1308   0.0000
    63 H3D         70.9008   -20.4143   -65.8571 H            1 NAP1308   0.0000
    64 H16         72.1266   -18.0819   -66.7650 H            1 NAP1308   0.0000
    65 H2D         72.8230   -21.6540   -66.2444 H            1 NAP1308   0.0000
    66 H18         72.1467   -20.0026   -68.3784 H            1 NAP1308   0.0000
    67 H1D         74.0911   -19.1686   -66.9560 H            1 NAP1308   0.0000
    68 H2N         74.9315   -21.9153   -64.7336 H            1 NAP1308   0.0000
    69 H7N1        76.6919   -24.4713   -62.9004 H            1 NAP1308   0.0000
    70 H7N2        75.6131   -23.1849   -63.3262 H            1 NAP1308   0.0000
    71 H4N         78.6817   -22.3092   -66.4601 H            1 NAP1308   0.0000
    72 H5N         78.1292   -20.5736   -68.0197 H            1 NAP1308   0.0000
    73 H6N         75.9869   -19.5306   -67.8999 H            1 NAP1308   0.0000
@<TRIPOS>BOND
     1    1    2      ar
     2    1    3      ar
     3    1    4       1
     4    1   23       1
     5    4    5       1
     6    5    6       1
     7    6    7       1
     8    6    8       1
     9    7   12       1
    10    8    9       1
    11    8   10       1
    12   10   11       1
    13   10   12       1
    14   11   45       1
    15   12   13       1
    16   13   14       1
    17   13   22       1
    18   14   15       2
    19   15   16       1
    20   16   17      ar
    21   16   22      ar
    22   17   18       1
    23   17   19      ar
    24   19   20      ar
    25   20   21      ar
    26   21   22      ar
    27   23   24       1
    28   24   25      ar
    29   24   26      ar
    30   24   27       1
    31   27   28       1
    32   28   29       1
    33   29   30       1
    34   29   31       1
    35   30   35       1
    36   31   32       1
    37   31   33       1
    38   33   34       1
    39   33   35       1
    40   35   36       1
    41   36   37      ar
    42   36   44      ar
    43   37   38      ar
    44   38   39       1
    45   38   42      ar
    46   39   40       2
    47   39   41      am
    48   42   43      ar
    49   43   44      ar
    50   45   46      ar
    51   45   47      ar
    52   45   48      ar
    53   43   72       1
    54    5   49       1
    55    5   50       1
    56    6   51       1
    57    8   52       1
    58    9   53       1
    59   10   54       1
    60   12   55       1
    61   14   56       1
    62   18   57       1
    63   18   58       1
    64   20   59       1
    65   44   73       1
    66   28   60       1
    67   28   61       1
    68   29   62       1
    69   31   63       1
    70   32   64       1
    71   33   65       1
    72   34   66       1
    73   35   67       1
    74   37   68       1
    75   41   69       1
    76   41   70       1
    77   42   71       1
@<TRIPOS>SUBSTRUCTURE
     1 NAP1308     1 GROUP             4 B     NAP     0 **** NAP B1308
