@<TRIPOS>MOLECULE
2hgs_ADP_1_ligand
   39    41     1     0     0
SMALL
NO_CHARGES


@<TRIPOS>ATOM
     1 PB          50.2530     8.8520    26.4150 P.3          1 ADP500   0.0000
     2 O1B         50.7410     8.1880    25.1780 O.co2        1 ADP500   0.0000
     3 O2B         50.1940    10.2850    26.4750 O.co2        1 ADP500  -1.0000
     4 O3B         49.0750     8.0440    27.0940 O.co2        1 ADP500  -1.0000
     5 PA          52.8330     7.8490    27.2620 P.3          1 ADP500   0.0000
     6 O1A         53.3810     7.3220    28.5600 O.co2        1 ADP500   0.0000
     7 O2A         52.7880     6.7200    26.3500 O.co2        1 ADP500  -1.0000
     8 O3A         51.4740     8.5950    27.5020 O.3          1 ADP500   0.0000
     9 O5'         53.9200     8.9040    26.7220 O.3          1 ADP500   0.0000
    10 C5'         53.9170     9.4580    25.3830 C.3          1 ADP500   0.0000
    11 C4'         55.2160     9.2330    24.6280 C.3          1 ADP500   0.0000
    12 O4'         56.2920     9.8800    25.3570 O.3          1 ADP500   0.0000
    13 C3'         55.6530     7.8070    24.4120 C.3          1 ADP500   0.0000
    14 O3'         55.0280     7.1370    23.2780 O.3          1 ADP500   0.0000
    15 C2'         57.1860     8.0250    24.2920 C.3          1 ADP500   0.0000
    16 O2'         57.5120     8.6520    23.0090 O.3          1 ADP500   0.0000
    17 C1'         57.4200     9.0940    25.3960 C.3          1 ADP500   0.0000
    18 N9          57.6680     8.4500    26.6880 N.pl3        1 ADP500   0.0000
    19 C8          56.9740     8.3280    27.8200 C.2          1 ADP500   0.0000
    20 N7          57.6290     7.6130    28.7960 N.2          1 ADP500   0.0000
    21 C5          58.7720     7.3330    28.2070 C.ar         1 ADP500   0.0000
    22 C6          59.7200     6.6040    28.8820 C.ar         1 ADP500   0.0000
    23 N6          59.4920     6.1600    30.1090 N.pl3        1 ADP500   0.0000
    24 N1          60.8290     6.4680    28.1220 N.ar         1 ADP500   0.0000
    25 C2          60.8120     6.9620    26.8450 C.ar         1 ADP500   0.0000
    26 N3          59.9350     7.6510    26.1450 N.ar         1 ADP500   0.0000
    27 C4          58.8610     7.8020    26.9520 C.ar         1 ADP500   0.0000
    28 H5'1        53.7562    10.4428    25.4488 H            1 ADP500   0.0000
    29 H5'2        53.1737     9.0327    24.8667 H            1 ADP500   0.0000
    30 H4'         55.1368     9.6734    23.7337 H            1 ADP500   0.0000
    31 H3'         55.4649     7.2818    25.2419 H            1 ADP500   0.0000
    32 H5          55.3748     6.2015    23.2111 H            1 ADP500   0.0000
    33 H2'         57.7068     7.1866    24.4529 H            1 ADP500   0.0000
    34 H7          57.2071     8.0610    22.2622 H            1 ADP500   0.0000
    35 H1'         58.2142     9.6496    25.1499 H            1 ADP500   0.0000
    36 H9          56.0627     8.7196    27.9476 H            1 ADP500   0.0000
    37 H10         60.1925     5.6304    30.5873 H            1 ADP500   0.0000
    38 H11         58.6193     6.3544    30.5570 H            1 ADP500   0.0000
    39 H12         61.6459     6.7547    26.3335 H            1 ADP500   0.0000
@<TRIPOS>BOND
     1    1    2      ar
     2    1    3      ar
     3    1    4      ar
     4    1    8       1
     5    5    6      ar
     6    5    7      ar
     7    5    8       1
     8    5    9       1
     9    9   10       1
    10   10   11       1
    11   11   12       1
    12   11   13       1
    13   12   17       1
    14   13   14       1
    15   13   15       1
    16   15   16       1
    17   15   17       1
    18   17   18       1
    19   18   19       1
    20   18   27       1
    21   19   20       2
    22   20   21       1
    23   21   22      ar
    24   21   27      ar
    25   22   23       1
    26   22   24      ar
    27   24   25      ar
    28   25   26      ar
    29   26   27      ar
    30   25   39       1
    31   23   38       1
    32   23   37       1
    33   10   28       1
    34   10   29       1
    35   11   30       1
    36   13   31       1
    37   14   32       1
    38   15   33       1
    39   16   34       1
    40   17   35       1
    41   19   36       1
@<TRIPOS>SUBSTRUCTURE
     1 ADP500      1 GROUP             4 A     ADP     0 **** ADP A 500
