@<TRIPOS>MOLECULE
1eg2_MTA_1_ligand
   35    37     1     0     0
SMALL
NO_CHARGES


@<TRIPOS>ATOM
     1 CS          27.7960    19.4730    -1.5430 C.3          1 MTA401   0.0000
     2 S5'         29.3100    20.2230    -2.2240 S.3          1 MTA401   0.0000
     3 C5'         28.8770    21.9850    -2.2360 C.3          1 MTA401   0.0000
     4 C4'         28.0340    22.4260    -3.4460 C.3          1 MTA401   0.0000
     5 O4'         27.7060    23.8010    -3.3700 O.3          1 MTA401   0.0000
     6 C2'         28.7240    23.6100    -5.4500 C.3          1 MTA401   0.0000
     7 O2'         28.3550    23.6280    -6.8380 O.3          1 MTA401   0.0000
     8 C3'         28.6700    22.2020    -4.8440 C.3          1 MTA401   0.0000
     9 O3'         28.0250    21.1740    -5.5840 O.3          1 MTA401   0.0000
    10 C1'         27.6150    24.3410    -4.6790 C.3          1 MTA401   0.0000
    11 N9          27.7730    25.8030    -4.5290 N.pl3        1 MTA401   0.0000
    12 C8          28.8650    26.5940    -4.3860 C.2          1 MTA401   0.0000
    13 N7          28.5770    27.9040    -4.2660 N.2          1 MTA401   0.0000
    14 C5          27.1850    27.9970    -4.3300 C.ar         1 MTA401   0.0000
    15 C6          26.2080    28.9960    -4.2730 C.ar         1 MTA401   0.0000
    16 N6          26.5300    30.3080    -4.1120 N.pl3        1 MTA401   0.0000
    17 N1          24.8780    28.6890    -4.3750 N.ar         1 MTA401   0.0000
    18 C2          24.4960    27.3960    -4.5360 C.ar         1 MTA401   0.0000
    19 N3          25.3720    26.3620    -4.6010 N.ar         1 MTA401   0.0000
    20 C4          26.6920    26.6750    -4.4980 C.ar         1 MTA401   0.0000
    21 HS1         27.9120    18.4814    -1.4854 H            1 MTA401   0.0000
    22 HS2         27.6229    19.8419    -0.6298 H            1 MTA401   0.0000
    23 HS3         27.0219    19.6839    -2.1399 H            1 MTA401   0.0000
    24 H5'1        29.7249    22.5152    -2.2360 H            1 MTA401   0.0000
    25 H5'2        28.3588    22.1851    -1.4045 H            1 MTA401   0.0000
    26 H4'         27.1774    21.9107    -3.4194 H            1 MTA401   0.0000
    27 H2'         29.6156    24.0381    -5.3026 H            1 MTA401   0.0000
    28 H8          27.4208    23.2858    -6.9390 H            1 MTA401   0.0000
    29 H3'         29.6144    21.9092    -4.6945 H            1 MTA401   0.0000
    30 H10         27.0605    21.1307    -5.3235 H            1 MTA401   0.0000
    31 H1'         26.7223    24.1302    -5.0772 H            1 MTA401   0.0000
    32 H12         29.7990    26.2371    -4.3710 H            1 MTA401   0.0000
    33 H13         25.8082    30.9991    -4.0750 H            1 MTA401   0.0000
    34 H14         27.4885    30.5813    -4.0306 H            1 MTA401   0.0000
    35 H15         23.5191    27.1956    -4.6105 H            1 MTA401   0.0000
@<TRIPOS>BOND
     1    1    2       1
     2    2    3       1
     3    3    4       1
     4    4    5       1
     5    4    8       1
     6    5   10       1
     7    6    7       1
     8    6    8       1
     9    6   10       1
    10    8    9       1
    11   10   11       1
    12   11   12       1
    13   11   20       1
    14   12   13       2
    15   13   14       1
    16   14   15      ar
    17   14   20      ar
    18   15   16       1
    19   15   17      ar
    20   17   18      ar
    21   18   19      ar
    22   19   20      ar
    23    1   21       1
    24    1   22       1
    25    1   23       1
    26    3   24       1
    27    3   25       1
    28    4   26       1
    29    6   27       1
    30    7   28       1
    31    8   29       1
    32    9   30       1
    33   10   31       1
    34   12   32       1
    35   16   33       1
    36   16   34       1
    37   18   35       1
@<TRIPOS>SUBSTRUCTURE
     1 MTA401      1 GROUP             4 A     MTA     0 **** MTA A 401
