@<TRIPOS>MOLECULE
4r8q_ADP_1_ligand
   39    41     1     0     0
SMALL
NO_CHARGES


@<TRIPOS>ATOM
     1 PB         -24.7930    23.8800   -20.8180 P.3          1 ADP1501   0.0000
     2 O1B        -26.2270    23.7050   -20.3830 O.co2        1 ADP1501   0.0000
     3 O2B        -24.6160    24.6430   -22.1060 O.co2        1 ADP1501  -1.0000
     4 O3B        -23.8710    24.3270   -19.7080 O.co2        1 ADP1501  -1.0000
     5 PA         -25.0270    21.0520   -20.6680 P.3          1 ADP1501   0.0000
     6 O1A        -24.0350    20.2000   -19.9140 O.co2        1 ADP1501   0.0000
     7 O2A        -26.3410    21.4490   -20.0330 O.co2        1 ADP1501  -1.0000
     8 O3A        -24.2740    22.3910   -21.1660 O.3          1 ADP1501   0.0000
     9 O5'        -25.3440    20.3210   -22.0640 O.3          1 ADP1501   0.0000
    10 C5'        -26.3190    20.8680   -22.9470 C.3          1 ADP1501   0.0000
    11 C4'        -27.2970    19.7910   -23.3910 C.3          1 ADP1501   0.0000
    12 O4'        -26.6160    18.6050   -23.8120 O.3          1 ADP1501   0.0000
    13 C3'        -28.2240    19.3600   -22.2650 C.3          1 ADP1501   0.0000
    14 O3'        -29.3740    20.2060   -22.1650 O.3          1 ADP1501   0.0000
    15 C2'        -28.5630    17.9270   -22.6210 C.3          1 ADP1501   0.0000
    16 O2'        -29.7310    17.8490   -23.4460 O.3          1 ADP1501   0.0000
    17 C1'        -27.3590    17.4470   -23.4100 C.3          1 ADP1501   0.0000
    18 N9         -26.5130    16.5920   -22.5440 N.pl3        1 ADP1501   0.0000
    19 C8         -25.7130    17.0370   -21.5530 C.2          1 ADP1501   0.0000
    20 N7         -25.0750    16.0040   -20.9520 N.2          1 ADP1501   0.0000
    21 C5         -25.4680    14.8740   -21.5600 C.ar         1 ADP1501   0.0000
    22 C6         -25.1790    13.4320   -21.4150 C.ar         1 ADP1501   0.0000
    23 N6         -24.3170    12.9900   -20.4730 N.pl3        1 ADP1501   0.0000
    24 N1         -25.8050    12.5770   -22.2520 N.ar         1 ADP1501   0.0000
    25 C2         -26.6650    13.0020   -23.1940 C.ar         1 ADP1501   0.0000
    26 N3         -26.9690    14.2970   -23.3750 N.ar         1 ADP1501   0.0000
    27 C4         -26.4190    15.2640   -22.6070 C.ar         1 ADP1501   0.0000
    28 H5'1       -25.8599    21.2474   -23.7503 H            1 ADP1501   0.0000
    29 H5'2       -26.8200    21.5938   -22.4756 H            1 ADP1501   0.0000
    30 H4'        -27.8455    20.1403   -24.1507 H            1 ADP1501   0.0000
    31 H3'        -27.7239    19.3769   -21.3992 H            1 ADP1501   0.0000
    32 H5         -29.9560    19.8902   -21.4156 H            1 ADP1501   0.0000
    33 H2'        -28.6811    17.3786   -21.7932 H            1 ADP1501   0.0000
    34 H7         -29.9242    16.8916   -23.6605 H            1 ADP1501   0.0000
    35 H1'        -27.6574    16.9333   -24.2144 H            1 ADP1501   0.0000
    36 H9         -25.6057    17.9977   -21.2971 H            1 ADP1501   0.0000
    37 H10        -24.1304    12.0114   -20.3857 H            1 ADP1501   0.0000
    38 H11        -23.8656    13.6414   -19.8632 H            1 ADP1501   0.0000
    39 H12        -27.0978    12.3227   -23.7867 H            1 ADP1501   0.0000
@<TRIPOS>BOND
     1    1    2      ar
     2    1    3      ar
     3    1    4      ar
     4    1    8       1
     5    5    6      ar
     6    5    7      ar
     7    5    8       1
     8    5    9       1
     9    9   10       1
    10   10   11       1
    11   11   12       1
    12   11   13       1
    13   12   17       1
    14   13   14       1
    15   13   15       1
    16   15   16       1
    17   15   17       1
    18   17   18       1
    19   18   19       1
    20   18   27       1
    21   19   20       2
    22   20   21       1
    23   21   22      ar
    24   21   27      ar
    25   22   23       1
    26   22   24      ar
    27   24   25      ar
    28   25   26      ar
    29   26   27      ar
    30   25   39       1
    31   23   38       1
    32   23   37       1
    33   10   28       1
    34   10   29       1
    35   11   30       1
    36   13   31       1
    37   14   32       1
    38   15   33       1
    39   16   34       1
    40   17   35       1
    41   19   36       1
@<TRIPOS>SUBSTRUCTURE
     1 ADP1501     1 GROUP             4 A     ADP     0 **** ADP A1501
