@<TRIPOS>MOLECULE
2aqj_FAD_1_ligand
   84    89     1     0     0
SMALL
NO_CHARGES


@<TRIPOS>ATOM
     1 PA          23.0530     1.3750    27.7580 P.3          1 FAD600   0.0000
     2 O1A         21.7570     0.9370    28.3820 O.co2        1 FAD600   0.0000
     3 O2A         23.7560     2.5830    28.4280 O.co2        1 FAD600  -1.0000
     4 O5B         23.9490     0.0610    27.7280 O.3          1 FAD600   0.0000
     5 C5B         25.3450     0.1590    27.6360 C.3          1 FAD600   0.0000
     6 C4B         25.9010    -1.2560    27.7060 C.3          1 FAD600   0.0000
     7 O4B         27.2700    -1.1600    27.3250 O.3          1 FAD600   0.0000
     8 C3B         25.8660    -1.8130    29.1270 C.3          1 FAD600   0.0000
     9 O3B         25.6460    -3.2020    29.0210 O.3          1 FAD600   0.0000
    10 C2B         27.2690    -1.5180    29.6640 C.3          1 FAD600   0.0000
    11 O2B         27.6910    -2.5020    30.5840 O.3          1 FAD600   0.0000
    12 C1B         28.0690    -1.6740    28.3850 C.3          1 FAD600   0.0000
    13 N9A         29.3920    -1.0350    28.3760 N.pl3        1 FAD600   0.0000
    14 C8A         29.7150     0.2970    28.3440 C.2          1 FAD600   0.0000
    15 N7A         31.0840     0.3620    28.2900 N.2          1 FAD600   0.0000
    16 C5A         31.5820    -0.8920    28.2880 C.ar         1 FAD600   0.0000
    17 C6A         32.8770    -1.3770    28.2620 C.ar         1 FAD600   0.0000
    18 N6A         33.8720    -0.5170    28.4990 N.pl3        1 FAD600   0.0000
    19 N1A         33.0690    -2.7480    28.2460 N.ar         1 FAD600   0.0000
    20 C2A         31.9940    -3.6160    28.2880 C.ar         1 FAD600   0.0000
    21 N3A         30.7000    -3.1240    28.3240 N.ar         1 FAD600   0.0000
    22 C4A         30.5230    -1.7800    28.3180 C.ar         1 FAD600   0.0000
    23 N1          13.6320     4.7520    24.4570 N.2          1 FAD600   0.0000
    24 C2          12.3360     4.4520    24.1190 C.2          1 FAD600   0.0000
    25 O2          12.1260     3.7580    23.1160 O.2          1 FAD600   0.0000
    26 N3          11.2740     4.9110    24.8680 N.pl3        1 FAD600   0.0000
    27 C4          11.4440     5.7390    25.9560 C.2          1 FAD600   0.0000
    28 O4          10.4620     6.1510    26.6240 O.2          1 FAD600   0.0000
    29 C4X         12.7580     6.0700    26.3060 C.2          1 FAD600   0.0000
    30 N5          13.0060     6.8800    27.4160 N.2          1 FAD600   0.0000
    31 C5X         14.3170     7.2340    27.7330 C.ar         1 FAD600   0.0000
    32 C6          14.5560     8.0880    28.8030 C.ar         1 FAD600   0.0000
    33 C7          15.8670     8.4150    29.1350 C.ar         1 FAD600   0.0000
    34 C7M         16.1200     9.3260    30.3090 C.3          1 FAD600   0.0000
    35 C8          16.9390     7.9170    28.4030 C.ar         1 FAD600   0.0000
    36 C8M         18.3780     8.2700    28.7680 C.3          1 FAD600   0.0000
    37 C9          16.6950     7.0690    27.3210 C.ar         1 FAD600   0.0000
    38 C9A         15.3830     6.7400    26.9830 C.ar         1 FAD600   0.0000
    39 N10         15.1320     5.8950    25.9110 N.pl3        1 FAD600   0.0000
    40 C10         13.8380     5.5750    25.5550 C.2          1 FAD600   0.0000
    41 C1'         16.2590     5.3350    25.1080 C.3          1 FAD600   0.0000
    42 C2'         16.5150     3.9100    25.6620 C.3          1 FAD600   0.0000
    43 O2'         16.6330     3.8210    27.0940 O.3          1 FAD600   0.0000
    44 C3'         17.8030     3.3670    25.0260 C.3          1 FAD600   0.0000
    45 O3'         17.6580     3.5480    23.6300 O.3          1 FAD600   0.0000
    46 C4'         17.9350     1.8690    25.2070 C.3          1 FAD600   0.0000
    47 O4'         17.5420     1.3920    26.4640 O.3          1 FAD600   0.0000
    48 C5'         19.3340     1.3670    24.8090 C.3          1 FAD600   0.0000
    49 O5'         20.4330     1.8600    25.5550 O.3          1 FAD600   0.0000
    50 P           21.8830     1.3220    25.0880 P.3          1 FAD600   0.0000
    51 O1P         21.8350    -0.1390    25.0630 O.co2        1 FAD600   0.0000
    52 O2P         22.3600     2.0710    23.8470 O.co2        1 FAD600  -1.0000
    53 O3P         22.9180     1.8270    26.2200 O.3          1 FAD600   0.0000
    54 H5B1        25.7009     0.7049    28.3945 H            1 FAD600   0.0000
    55 H5B2        25.6021     0.5856    26.7689 H            1 FAD600   0.0000
    56 H4B         25.4048    -1.8587    27.0811 H            1 FAD600   0.0000
    57 H3B         25.1598    -1.3695    29.6789 H            1 FAD600   0.0000
    58 H5          26.0789    -3.6679    29.7927 H            1 FAD600   0.0000
    59 H2B         27.3405    -0.5949    30.0418 H            1 FAD600   0.0000
    60 H7          27.4154    -2.2350    31.5074 H            1 FAD600   0.0000
    61 H1B         28.2002    -2.6521    28.2232 H            1 FAD600   0.0000
    62 H8A         29.0786     1.0683    28.3574 H            1 FAD600   0.0000
    63 H6A1        34.8203    -0.8342    28.4879 H            1 FAD600   0.0000
    64 H6A2        33.6683     0.4437    28.6875 H            1 FAD600   0.0000
    65 H2A         32.1514    -4.6035    28.2924 H            1 FAD600   0.0000
    66 H13         10.3478     4.6334    24.6129 H            1 FAD600   0.0000
    67 H14         13.7932     8.4638    29.3292 H            1 FAD600   0.0000
    68 H7M1        17.1044     9.4641    30.4177 H            1 FAD600   0.0000
    69 H7M2        15.6754    10.2073    30.1489 H            1 FAD600   0.0000
    70 H7M3        15.7480     8.9109    31.1393 H            1 FAD600   0.0000
    71 H8M1        19.0035     7.8200    28.1306 H            1 FAD600   0.0000
    72 H8M2        18.5023     9.2608    28.7135 H            1 FAD600   0.0000
    73 H8M3        18.5712     7.9605    29.6991 H            1 FAD600   0.0000
    74 H21         17.4580     6.6992    26.7908 H            1 FAD600   0.0000
    75 H1'1        17.0764     5.9011    25.2152 H            1 FAD600   0.0000
    76 H1'2        16.0081     5.2915    24.1410 H            1 FAD600   0.0000
    77 H2'         15.7565     3.3245    25.3758 H            1 FAD600   0.0000
    78 H25         15.7305     3.6597    27.4934 H            1 FAD600   0.0000
    79 H3'         18.6091     3.8469    25.3724 H            1 FAD600   0.0000
    80 H27         16.8569     3.0423    23.3097 H            1 FAD600   0.0000
    81 H4'         17.3020     1.4589    24.5504 H            1 FAD600   0.0000
    82 H29         17.2357     2.1573    27.0301 H            1 FAD600   0.0000
    83 H5'1        19.4829     1.6171    23.8523 H            1 FAD600   0.0000
    84 H5'2        19.3329     0.3709    24.8969 H            1 FAD600   0.0000
@<TRIPOS>BOND
     1    1    2      ar
     2    1    3      ar
     3    1    4       1
     4    1   53       1
     5    4    5       1
     6    5    6       1
     7    6    7       1
     8    6    8       1
     9    7   12       1
    10    8    9       1
    11    8   10       1
    12   10   11       1
    13   10   12       1
    14   12   13       1
    15   13   14       1
    16   13   22       1
    17   14   15       2
    18   15   16       1
    19   16   17      ar
    20   16   22      ar
    21   17   18       1
    22   17   19      ar
    23   19   20      ar
    24   20   21      ar
    25   21   22      ar
    26   23   24       1
    27   23   40       2
    28   24   25       2
    29   24   26       1
    30   26   27       1
    31   27   28       2
    32   27   29       1
    33   29   30       2
    34   29   40       1
    35   30   31       1
    36   31   32      ar
    37   31   38      ar
    38   32   33      ar
    39   33   34       1
    40   33   35      ar
    41   35   36       1
    42   35   37      ar
    43   37   38      ar
    44   38   39       1
    45   39   40       1
    46   39   41       1
    47   41   42       1
    48   42   43       1
    49   42   44       1
    50   44   45       1
    51   44   46       1
    52   46   47       1
    53   46   48       1
    54   48   49       1
    55   49   50       1
    56   50   51      ar
    57   50   52      ar
    58   50   53       1
    59   48   84       1
    60    5   54       1
    61    5   55       1
    62    6   56       1
    63    8   57       1
    64    9   58       1
    65   10   59       1
    66   11   60       1
    67   12   61       1
    68   14   62       1
    69   18   63       1
    70   18   64       1
    71   20   65       1
    72   26   66       1
    73   32   67       1
    74   34   68       1
    75   34   69       1
    76   34   70       1
    77   36   71       1
    78   36   72       1
    79   36   73       1
    80   37   74       1
    81   41   75       1
    82   41   76       1
    83   42   77       1
    84   43   78       1
    85   44   79       1
    86   45   80       1
    87   46   81       1
    88   47   82       1
    89   48   83       1
@<TRIPOS>SUBSTRUCTURE
     1 FAD600      1 GROUP             4 A     FAD     0 **** FAD A 600
