@<TRIPOS>MOLECULE
5hws_NAP_3_ligand
   73    77     1     0     0
SMALL
NO_CHARGES


@<TRIPOS>ATOM
     1 PA          25.6970    38.7780    71.1550 P.3          1 NAP401   0.0000
     2 O1A         26.5900    37.5600    71.0920 O.co2        1 NAP401   0.0000
     3 O2A         25.6580    39.3110    72.5940 O.co2        1 NAP401  -1.0000
     4 O5B         26.2650    39.9230    70.2070 O.3          1 NAP401   0.0000
     5 C5B         25.9750    39.8920    68.8240 C.3          1 NAP401   0.0000
     6 C4B         27.2200    39.4850    68.0010 C.3          1 NAP401   0.0000
     7 O4B         27.6160    40.4880    67.2490 O.3          1 NAP401   0.0000
     8 C3B         28.3930    39.1490    68.8980 C.3          1 NAP401   0.0000
     9 O3B         28.7680    37.8860    68.7040 O.3          1 NAP401   0.0000
    10 C2B         29.5410    40.1300    68.4550 C.3          1 NAP401   0.0000
    11 O2B         30.8840    39.4350    68.4870 O.3          1 NAP401   0.0000
    12 C1B         29.2400    40.4420    67.2630 C.3          1 NAP401   0.0000
    13 N9A         29.7850    41.7100    66.9290 N.pl3        1 NAP401   0.0000
    14 C8A         30.2140    42.7880    67.6520 C.2          1 NAP401   0.0000
    15 N7A         30.6420    43.7290    66.7880 N.2          1 NAP401   0.0000
    16 C5A         30.4840    43.2450    65.5190 C.ar         1 NAP401   0.0000
    17 C6A         30.7620    43.7970    64.2720 C.ar         1 NAP401   0.0000
    18 N6A         31.3120    45.0590    63.7740 N.pl3        1 NAP401   0.0000
    19 N1A         30.5160    43.1180    63.1760 N.ar         1 NAP401   0.0000
    20 C2A         29.9760    41.8450    63.2590 C.ar         1 NAP401   0.0000
    21 N3A         29.7020    41.3000    64.4760 N.ar         1 NAP401   0.0000
    22 C4A         29.9560    42.0000    65.6040 C.ar         1 NAP401   0.0000
    23 O3          24.1400    38.3490    70.7030 O.3          1 NAP401   0.0000
    24 PN          22.8140    39.0220    71.3430 P.3          1 NAP401   0.0000
    25 O1N         22.7140    38.6760    72.8280 O.co2        1 NAP401   0.0000
    26 O2N         21.5940    38.5140    70.6160 O.co2        1 NAP401  -1.0000
    27 O5D         22.9040    40.5810    71.1610 O.3          1 NAP401   0.0000
    28 C5D         22.6890    41.4020    72.3140 C.3          1 NAP401   0.0000
    29 C4D         21.9960    42.6840    71.9100 C.3          1 NAP401   0.0000
    30 O4D         20.7220    42.4390    71.5540 O.3          1 NAP401   0.0000
    31 C3D         21.8930    43.5200    73.1400 C.3          1 NAP401   0.0000
    32 O3D         21.6930    44.8370    72.8220 O.3          1 NAP401   0.0000
    33 C2D         20.6130    42.8910    73.8070 C.3          1 NAP401   0.0000
    34 O2D         20.1340    43.7350    74.8730 O.3          1 NAP401   0.0000
    35 C1D         19.7970    42.8390    72.8170 C.3          1 NAP401   0.0000
    36 N1N         18.8110    41.8540    73.0370 N.ar         1 NAP401   1.0000
    37 C2N         19.1660    40.5420    73.1250 C.ar         1 NAP401   0.0000
    38 C3N         18.2050    39.5850    73.3400 C.ar         1 NAP401   0.0000
    39 C7N         18.6090    38.0950    73.4400 C.2          1 NAP401   0.0000
    40 O7N         17.8160    37.2830    73.8370 O.2          1 NAP401   0.0000
    41 N7N         19.9460    37.6760    73.0540 N.am         1 NAP401   0.0000
    42 C4N         16.9080    39.9460    73.4630 C.ar         1 NAP401   0.0000
    43 C5N         16.5560    41.2500    73.3750 C.ar         1 NAP401   0.0000
    44 C6N         17.5220    42.2120    73.1590 C.ar         1 NAP401   0.0000
    45 P2B         31.8800    39.7490    69.6720 P.3          1 NAP401   0.0000
    46 O1X         31.5850    38.8130    70.8490 O.co2        1 NAP401   0.0000
    47 O2X         33.3500    39.5320    69.1940 O.co2        1 NAP401  -1.0000
    48 O3X         31.7000    41.2110    70.1180 O.co2        1 NAP401  -1.0000
    49 H5B1        25.6743    40.8003    68.5332 H            1 NAP401   0.0000
    50 H5B2        25.2439    39.2301    68.6587 H            1 NAP401   0.0000
    51 H4B         27.0003    38.6979    67.4246 H            1 NAP401   0.0000
    52 H3B         28.1545    39.2999    69.8573 H            1 NAP401   0.0000
    53 H5          28.2658    37.2893    69.3299 H            1 NAP401   0.0000
    54 H2B         29.5525    40.9424    69.0380 H            1 NAP401   0.0000
    55 H1B         29.5721    39.7444    66.6282 H            1 NAP401   0.0000
    56 H8A         30.2107    42.8648    68.6490 H            1 NAP401   0.0000
    57 H6A1        31.4105    45.2078    62.7901 H            1 NAP401   0.0000
    58 H6A2        31.5892    45.7722    64.4178 H            1 NAP401   0.0000
    59 H2A         29.7875    41.3264    62.4250 H            1 NAP401   0.0000
    60 H5D1        23.5695    41.6194    72.7353 H            1 NAP401   0.0000
    61 H5D2        22.1181    40.9090    72.9705 H            1 NAP401   0.0000
    62 H4D         22.4951    43.1582    71.1847 H            1 NAP401   0.0000
    63 H3D         22.6976    43.4067    73.7230 H            1 NAP401   0.0000
    64 H16         22.4434    45.3863    73.1895 H            1 NAP401   0.0000
    65 H2D         20.8103    41.9720    74.1482 H            1 NAP401   0.0000
    66 H18         20.9039    44.2250    75.2818 H            1 NAP401   0.0000
    67 H1D         19.3713    43.7316    72.6687 H            1 NAP401   0.0000
    68 H2N         20.1256    40.2759    73.0331 H            1 NAP401   0.0000
    69 H7N1        20.2064    36.7127    73.1189 H            1 NAP401   0.0000
    70 H7N2        20.6056    38.3510    72.7235 H            1 NAP401   0.0000
    71 H4N         16.2081    39.2490    73.6191 H            1 NAP401   0.0000
    72 H5N         15.5965    41.5164    73.4664 H            1 NAP401   0.0000
    73 H6N         17.2623    43.1755    73.0933 H            1 NAP401   0.0000
@<TRIPOS>BOND
     1    1    2      ar
     2    1    3      ar
     3    1    4       1
     4    1   23       1
     5    4    5       1
     6    5    6       1
     7    6    7       1
     8    6    8       1
     9    7   12       1
    10    8    9       1
    11    8   10       1
    12   10   11       1
    13   10   12       1
    14   11   45       1
    15   12   13       1
    16   13   14       1
    17   13   22       1
    18   14   15       2
    19   15   16       1
    20   16   17      ar
    21   16   22      ar
    22   17   18       1
    23   17   19      ar
    24   19   20      ar
    25   20   21      ar
    26   21   22      ar
    27   23   24       1
    28   24   25      ar
    29   24   26      ar
    30   24   27       1
    31   27   28       1
    32   28   29       1
    33   29   30       1
    34   29   31       1
    35   30   35       1
    36   31   32       1
    37   31   33       1
    38   33   34       1
    39   33   35       1
    40   35   36       1
    41   36   37      ar
    42   36   44      ar
    43   37   38      ar
    44   38   39       1
    45   38   42      ar
    46   39   40       2
    47   39   41      am
    48   42   43      ar
    49   43   44      ar
    50   45   46      ar
    51   45   47      ar
    52   45   48      ar
    53   43   72       1
    54    5   49       1
    55    5   50       1
    56    6   51       1
    57    8   52       1
    58    9   53       1
    59   10   54       1
    60   12   55       1
    61   14   56       1
    62   18   57       1
    63   18   58       1
    64   20   59       1
    65   44   73       1
    66   28   60       1
    67   28   61       1
    68   29   62       1
    69   31   63       1
    70   32   64       1
    71   33   65       1
    72   34   66       1
    73   35   67       1
    74   37   68       1
    75   41   69       1
    76   41   70       1
    77   42   71       1
@<TRIPOS>SUBSTRUCTURE
     1 NAP401      1 GROUP             4 C     NAP     0 **** NAP C 401
