@<TRIPOS>MOLECULE
5jyd_NAD_2_ligand
   70    74     1     0     0
SMALL
NO_CHARGES


@<TRIPOS>ATOM
     1 PA          17.8730     4.9880    28.2460 P.3          1 NAD901   0.0000
     2 O1A         19.1230     5.5170    28.8620 O.co2        1 NAD901   0.0000
     3 O2A         16.6460     5.3070    28.9930 O.co2        1 NAD901  -1.0000
     4 O5B         17.8860     3.3580    28.1630 O.3          1 NAD901   0.0000
     5 C5B         19.1030     2.6170    27.9840 C.3          1 NAD901   0.0000
     6 C4B         19.1800     1.6220    29.1050 C.3          1 NAD901   0.0000
     7 O4B         20.2570     0.7010    28.8540 O.3          1 NAD901   0.0000
     8 C3B         19.5170     2.2190    30.4670 C.3          1 NAD901   0.0000
     9 O3B         18.3100     2.6360    31.1000 O.3          1 NAD901   0.0000
    10 C2B         20.2030     1.0510    31.2000 C.3          1 NAD901   0.0000
    11 O2B         19.3210     0.4230    32.1180 O.3          1 NAD901   0.0000
    12 C1B         20.5200     0.0500    30.0750 C.3          1 NAD901   0.0000
    13 N9A         21.9050    -0.4010    30.0710 N.pl3        1 NAD901   0.0000
    14 C8A         23.0040     0.2530    29.5860 C.2          1 NAD901   0.0000
    15 N7A         24.1300    -0.3970    29.7560 N.2          1 NAD901   0.0000
    16 C5A         23.7420    -1.5620    30.4000 C.ar         1 NAD901   0.0000
    17 C6A         24.4680    -2.6680    30.8860 C.ar         1 NAD901   0.0000
    18 N6A         25.7910    -2.8080    30.7540 N.pl3        1 NAD901   0.0000
    19 N1A         23.7810    -3.6360    31.5330 N.ar         1 NAD901   0.0000
    20 C2A         22.4570    -3.4980    31.6770 C.ar         1 NAD901   0.0000
    21 N3A         21.6680    -2.5140    31.2440 N.ar         1 NAD901   0.0000
    22 C4A         22.3750    -1.5750    30.6090 C.ar         1 NAD901   0.0000
    23 O3          17.8920     5.4330    26.7110 O.3          1 NAD901   0.0000
    24 PN          17.0350     4.9540    25.4390 P.3          1 NAD901   0.0000
    25 O1N         15.6420     4.6930    25.8480 O.co2        1 NAD901   0.0000
    26 O2N         17.2960     5.9820    24.4040 O.co2        1 NAD901  -1.0000
    27 O5D         17.7140     3.5780    25.0470 O.3          1 NAD901   0.0000
    28 C5D         16.8970     2.4840    24.5730 C.3          1 NAD901   0.0000
    29 C4D         17.2900     2.1020    23.1650 C.3          1 NAD901   0.0000
    30 O4D         16.9770     3.1790    22.2430 O.3          1 NAD901   0.0000
    31 C3D         18.7760     1.7530    22.9590 C.3          1 NAD901   0.0000
    32 O3D         18.8510     0.4310    22.4320 O.3          1 NAD901   0.0000
    33 C2D         19.2660     2.8330    21.9820 C.3          1 NAD901   0.0000
    34 O2D         20.2110     2.3070    21.0640 O.3          1 NAD901   0.0000
    35 C1D         17.9740     3.1780    21.2550 C.3          1 NAD901   0.0000
    36 N1N         17.9610     4.5130    20.5390 N.ar         1 NAD901   1.0000
    37 C2N         17.8210     5.6440    21.2540 C.ar         1 NAD901   0.0000
    38 C3N         17.8170     6.8730    20.6200 C.ar         1 NAD901   0.0000
    39 C7N         17.5520     8.1690    21.3230 C.2          1 NAD901   0.0000
    40 O7N         17.7200     9.2390    20.7130 O.2          1 NAD901   0.0000
    41 N7N         17.1920     8.1210    22.5970 N.am         1 NAD901   0.0000
    42 C4N         17.9580     6.9120    19.2380 C.ar         1 NAD901   0.0000
    43 C5N         18.0830     5.7380    18.5270 C.ar         1 NAD901   0.0000
    44 C6N         18.0880     4.5350    19.1960 C.ar         1 NAD901   0.0000
    45 H5B1        19.8890     3.2342    28.0181 H            1 NAD901   0.0000
    46 H5B2        19.0898     2.1424    27.1039 H            1 NAD901   0.0000
    47 H4B         18.3177     1.1191    29.1649 H            1 NAD901   0.0000
    48 H3B         20.1463     2.9898    30.3672 H            1 NAD901   0.0000
    49 H5          17.9406     1.8818    31.6429 H            1 NAD901   0.0000
    50 H2B         21.0393     1.3550    31.6563 H            1 NAD901   0.0000
    51 H7          19.3975     0.8671    33.0107 H            1 NAD901   0.0000
    52 H1B         19.9167    -0.7428    30.1611 H            1 NAD901   0.0000
    53 H8A         22.9533     1.1473    29.1413 H            1 NAD901   0.0000
    54 H6A1        26.2472    -3.6182    31.1219 H            1 NAD901   0.0000
    55 H6A2        26.3244    -2.1025    30.2873 H            1 NAD901   0.0000
    56 H2A         21.9976    -4.2322    32.1769 H            1 NAD901   0.0000
    57 H5D1        15.9365     2.7622    24.5826 H            1 NAD901   0.0000
    58 H5D2        17.0216     1.6953    25.1750 H            1 NAD901   0.0000
    59 H4D         16.7479     1.3044    22.9007 H            1 NAD901   0.0000
    60 H3D         19.2727     1.8132    23.8248 H            1 NAD901   0.0000
    61 H17         18.9085    -0.2251    23.1845 H            1 NAD901   0.0000
    62 H2D         19.6330     3.6256    22.4690 H            1 NAD901   0.0000
    63 H19         20.9994     1.9500    21.5650 H            1 NAD901   0.0000
    64 H1D         17.7727     2.4552    20.5939 H            1 NAD901   0.0000
    65 H2N         17.7194     5.5958    22.2477 H            1 NAD901   0.0000
    66 H7N1        17.0074     8.9673    23.0966 H            1 NAD901   0.0000
    67 H7N2        17.1048     7.2384    23.0590 H            1 NAD901   0.0000
    68 H4N         17.9687     7.7904    18.7602 H            1 NAD901   0.0000
    69 H5N         18.1696     5.7600    17.5310 H            1 NAD901   0.0000
    70 H6N         18.1855     3.6793    18.6878 H            1 NAD901   0.0000
@<TRIPOS>BOND
     1    1    2      ar
     2    1    3      ar
     3    1    4       1
     4    1   23       1
     5    4    5       1
     6    5    6       1
     7    6    7       1
     8    6    8       1
     9    7   12       1
    10    8    9       1
    11    8   10       1
    12   10   11       1
    13   10   12       1
    14   12   13       1
    15   13   14       1
    16   13   22       1
    17   14   15       2
    18   15   16       1
    19   16   17      ar
    20   16   22      ar
    21   17   18       1
    22   17   19      ar
    23   19   20      ar
    24   20   21      ar
    25   21   22      ar
    26   23   24       1
    27   24   25      ar
    28   24   26      ar
    29   24   27       1
    30   27   28       1
    31   28   29       1
    32   29   30       1
    33   29   31       1
    34   30   35       1
    35   31   32       1
    36   31   33       1
    37   33   34       1
    38   33   35       1
    39   35   36       1
    40   36   37      ar
    41   36   44      ar
    42   37   38      ar
    43   38   39       1
    44   38   42      ar
    45   39   40       2
    46   39   41      am
    47   42   43      ar
    48   43   44      ar
    49   44   70       1
    50    5   45       1
    51    5   46       1
    52    6   47       1
    53    8   48       1
    54    9   49       1
    55   10   50       1
    56   11   51       1
    57   12   52       1
    58   14   53       1
    59   18   54       1
    60   18   55       1
    61   20   56       1
    62   43   69       1
    63   28   57       1
    64   28   58       1
    65   29   59       1
    66   31   60       1
    67   32   61       1
    68   33   62       1
    69   34   63       1
    70   35   64       1
    71   37   65       1
    72   41   66       1
    73   41   67       1
    74   42   68       1
@<TRIPOS>SUBSTRUCTURE
     1 NAD901      1 GROUP             4 B     NAD     0 **** NAD B 901
