@<TRIPOS>MOLECULE
1z45_UPG_1_ligand
   58    60     1     0     0
SMALL
NO_CHARGES


@<TRIPOS>ATOM
     1 N1          18.0180    26.3790    -4.1470 N.pl3        1 UPG704   0.0000
     2 C2          18.1330    27.5300    -4.8910 C.2          1 UPG704   0.0000
     3 N3          19.4080    27.7780    -5.3860 N.pl3        1 UPG704   0.0000
     4 C4          20.5570    26.9770    -5.2160 C.2          1 UPG704   0.0000
     5 C5          20.3020    25.8130    -4.4410 C.2          1 UPG704   0.0000
     6 C6          19.1160    25.5500    -3.9500 C.2          1 UPG704   0.0000
     7 O2          17.1740    28.2680    -5.0840 O.2          1 UPG704   0.0000
     8 O4          21.6580    27.2810    -5.6940 O.2          1 UPG704   0.0000
     9 C1C         16.6890    26.0280    -3.5770 C.3          1 UPG704   0.0000
    10 C2C         16.4330    24.5330    -3.6590 C.3          1 UPG704   0.0000
    11 O2C         15.5180    24.2230    -4.7160 O.3          1 UPG704   0.0000
    12 C3C         15.7210    24.1780    -2.3550 C.3          1 UPG704   0.0000
    13 C4C         16.3950    25.1610    -1.4440 C.3          1 UPG704   0.0000
    14 O4C         16.5210    26.3780    -2.2310 O.3          1 UPG704   0.0000
    15 O3C         14.3350    24.4970    -2.4490 O.3          1 UPG704   0.0000
    16 C5C         17.7120    24.7590    -0.8480 C.3          1 UPG704   0.0000
    17 O5C         18.3290    23.6820    -1.5520 O.3          1 UPG704   0.0000
    18 PA          19.7080    23.2120    -0.8740 P.3          1 UPG704   0.0000
    19 O1A         20.8350    22.6400    -1.6800 O.co2        1 UPG704   0.0000
    20 O2A         20.2890    24.2450     0.0200 O.co2        1 UPG704  -1.0000
    21 O3A         19.0690    21.9790     0.0200 O.3          1 UPG704   0.0000
    22 PB          18.7490    20.5060    -0.3820 P.3          1 UPG704   0.0000
    23 O1B         17.3360    20.3180     0.0700 O.co2        1 UPG704   0.0000
    24 O2B         18.7830    20.3430    -1.8710 O.co2        1 UPG704  -1.0000
    25 O3B         19.8080    19.3600     0.2070 O.3          1 UPG704   0.0000
    26 C1'         20.3510    19.3530     1.5380 C.3          1 UPG704   0.0000
    27 C2'         21.7360    18.6460     1.5130 C.3          1 UPG704   0.0000
    28 C3'         21.8430    17.1980     2.0990 C.3          1 UPG704   0.0000
    29 C4'         20.8270    17.0660     3.2490 C.3          1 UPG704   0.0000
    30 C5'         19.5280    17.3670     2.5650 C.3          1 UPG704   0.0000
    31 C6'         18.3290    16.9020     3.3440 C.3          1 UPG704   0.0000
    32 O2'         22.2920    18.7060     0.1910 O.3          1 UPG704   0.0000
    33 O3'         23.2040    16.8210     2.4940 O.3          1 UPG704   0.0000
    34 O4'         20.6430    15.8500     3.9860 O.3          1 UPG704   0.0000
    35 O5'         19.4330    18.7870     2.4990 O.3          1 UPG704   0.0000
    36 O6'         17.2210    17.6800     2.8740 O.3          1 UPG704   0.0000
    37 H1          19.5234    28.6151    -5.9207 H            1 UPG704   0.0000
    38 H2          21.0514    25.1747    -4.2650 H            1 UPG704   0.0000
    39 H3          18.9957    24.7168    -3.4102 H            1 UPG704   0.0000
    40 H1C         15.9856    26.4958    -4.1121 H            1 UPG704   0.0000
    41 H2C         17.2875    24.0229    -3.7569 H            1 UPG704   0.0000
    42 H6          15.6121    24.8986    -5.4472 H            1 UPG704   0.0000
    43 H3C         15.8779    23.2298    -2.0787 H            1 UPG704   0.0000
    44 H4C         15.7677    25.3528    -0.6892 H            1 UPG704   0.0000
    45 H9          14.1421    24.8826    -3.3513 H            1 UPG704   0.0000
    46 H5C1        17.5617    24.4774     0.0997 H            1 UPG704   0.0000
    47 H5C2        18.3263    25.5478    -0.8679 H            1 UPG704   0.0000
    48 H1'         20.5075    20.3051     1.8007 H            1 UPG704   0.0000
    49 H2'         22.3350    19.2100     2.0814 H            1 UPG704   0.0000
    50 H3'         21.5582    16.5656     1.3786 H            1 UPG704   0.0000
    51 H4'         21.0070    17.7993     3.9047 H            1 UPG704   0.0000
    52 H5'         19.5195    16.9743     1.6454 H            1 UPG704   0.0000
    53 H6'1        18.4702    17.0553     4.3220 H            1 UPG704   0.0000
    54 H6'2        18.1644    15.9295     3.1794 H            1 UPG704   0.0000
    55 H19         23.1818    18.2498     0.1826 H            1 UPG704   0.0000
    56 H20         23.8638    17.2985     1.9138 H            1 UPG704   0.0000
    57 H21         20.3574    16.0661     4.9197 H            1 UPG704   0.0000
    58 H6'         17.3698    17.9275     1.9166 H            1 UPG704   0.0000
@<TRIPOS>BOND
     1    1    2       1
     2    1    6       1
     3    1    9       1
     4    2    3       1
     5    2    7       2
     6    3    4       1
     7    4    5       1
     8    4    8       2
     9    5    6       2
    10    9   10       1
    11    9   14       1
    12   10   11       1
    13   10   12       1
    14   12   13       1
    15   12   15       1
    16   13   14       1
    17   13   16       1
    18   16   17       1
    19   17   18       1
    20   18   19      ar
    21   18   20      ar
    22   18   21       1
    23   21   22       1
    24   22   23      ar
    25   22   24      ar
    26   22   25       1
    27   25   26       1
    28   26   27       1
    29   26   35       1
    30   27   28       1
    31   27   32       1
    32   28   29       1
    33   28   33       1
    34   29   30       1
    35   29   34       1
    36   30   31       1
    37   30   35       1
    38   31   36       1
    39    3   37       1
    40    5   38       1
    41    6   39       1
    42    9   40       1
    43   10   41       1
    44   11   42       1
    45   12   43       1
    46   13   44       1
    47   15   45       1
    48   16   46       1
    49   16   47       1
    50   36   58       1
    51   34   57       1
    52   26   48       1
    53   27   49       1
    54   28   50       1
    55   29   51       1
    56   30   52       1
    57   31   53       1
    58   31   54       1
    59   32   55       1
    60   33   56       1
@<TRIPOS>SUBSTRUCTURE
     1 UPG704      1 GROUP             4 A     UPG     0 **** UPG A 704
