@<TRIPOS>MOLECULE
3nmu_SAM_1_ligand
   50    52     1     0     0
SMALL
NO_CHARGES


@<TRIPOS>ATOM
     1 N           56.3610    -4.8550   -21.4280 N.4          1 SAM228   1.0000
     2 CA          56.2070    -3.5260   -22.0350 C.3          1 SAM228   0.0000
     3 C           56.0030    -3.5770   -23.5620 C.2          1 SAM228   0.0000
     4 O           56.4640    -4.4710   -24.2950 O.2          1 SAM228   0.0000
     5 CB          57.3960    -2.6250   -21.6820 C.3          1 SAM228   0.0000
     6 CG          57.6280    -1.4860   -22.6780 C.3          1 SAM228   0.0000
     7 SD          58.9790    -0.3180   -22.3040 S.3          1 SAM228   1.0000
     8 CE          59.9760    -1.3070   -21.1490 C.3          1 SAM228   0.0000
     9 C5'         58.1190     1.2220   -21.7500 C.3          1 SAM228   0.0000
    10 C4'         58.5650     2.0890   -20.5610 C.3          1 SAM228   0.0000
    11 O4'         58.9350     3.4360   -20.8620 O.3          1 SAM228   0.0000
    12 C3'         57.4000     2.2640   -19.5900 C.3          1 SAM228   0.0000
    13 O3'         57.6880     1.5340   -18.4290 O.3          1 SAM228   0.0000
    14 C2'         57.2440     3.7600   -19.2920 C.3          1 SAM228   0.0000
    15 O2'         57.1070     3.9920   -17.9150 O.3          1 SAM228   0.0000
    16 C1'         58.5320     4.3530   -19.8110 C.3          1 SAM228   0.0000
    17 N9          58.3740     5.6990   -20.3890 N.pl3        1 SAM228   0.0000
    18 C8          57.3020     6.1260   -21.1270 C.2          1 SAM228   0.0000
    19 N7          57.5510     7.3860   -21.5640 N.2          1 SAM228   0.0000
    20 C5          58.7610     7.7870   -21.1100 C.ar         1 SAM228   0.0000
    21 C6          59.4740     8.9770   -21.2660 C.ar         1 SAM228   0.0000
    22 N6          58.9750    10.0140   -21.9710 N.pl3        1 SAM228   0.0000
    23 N1          60.7220     9.0710   -20.6880 N.ar         1 SAM228   0.0000
    24 C2          61.2390     8.0210   -19.9640 C.ar         1 SAM228   0.0000
    25 N3          60.5200     6.8680   -19.8160 N.ar         1 SAM228   0.0000
    26 C4          59.2980     6.7370   -20.3780 C.ar         1 SAM228   0.0000
    27 H1          56.4894    -4.7578   -20.4410 H            1 SAM228   0.0000
    28 H2          55.5413    -5.3995   -21.6055 H            1 SAM228   0.0000
    29 HA          55.3889    -3.1097   -21.6383 H            1 SAM228   0.0000
    30 H4          55.4682    -2.8481   -23.9893 H            1 SAM228   0.0000
    31 HB1         58.2208    -3.1896   -21.6516 H            1 SAM228   0.0000
    32 HB2         57.2318    -2.2259   -20.7799 H            1 SAM228   0.0000
    33 HG1         56.7805    -0.9582   -22.7350 H            1 SAM228   0.0000
    34 HG2         57.8241    -1.8988   -23.5675 H            1 SAM228   0.0000
    35 HE1         60.7706    -0.7757   -20.8551 H            1 SAM228   0.0000
    36 HE2         59.4222    -1.5471   -20.3517 H            1 SAM228   0.0000
    37 HE3         60.2836    -2.1422   -21.6049 H            1 SAM228   0.0000
    38 H5'1        57.1800     0.9464   -21.5444 H            1 SAM228   0.0000
    39 H5'2        58.1215     1.8314   -22.5429 H            1 SAM228   0.0000
    40 H4'         59.3220     1.6369   -20.0893 H            1 SAM228   0.0000
    41 H3'         56.5604     1.9152   -20.0064 H            1 SAM228   0.0000
    42 H16         58.5327     1.8786   -18.0195 H            1 SAM228   0.0000
    43 H2'         56.4616     4.1353   -19.7889 H            1 SAM228   0.0000
    44 H18         57.8514     4.5811   -17.6005 H            1 SAM228   0.0000
    45 H1'         59.2202     4.3687   -19.0857 H            1 SAM228   0.0000
    46 H20         56.4739     5.5971   -21.3127 H            1 SAM228   0.0000
    47 H21         59.5069    10.8553   -22.0671 H            1 SAM228   0.0000
    48 H22         58.0733     9.9411   -22.3972 H            1 SAM228   0.0000
    49 H23         62.1434     8.1018   -19.5450 H            1 SAM228   0.0000
    50 H24         57.1572    -5.3122   -21.8243 H            1 SAM228   0.0000
@<TRIPOS>BOND
     1    1    2       1
     2    2    3       1
     3    2    5       1
     4    3    4       2
     5    5    6       1
     6    6    7       1
     7    7    8       1
     8    7    9       1
     9    9   10       1
    10   10   11       1
    11   10   12       1
    12   11   16       1
    13   12   13       1
    14   12   14       1
    15   14   15       1
    16   14   16       1
    17   16   17       1
    18   17   18       1
    19   17   26       1
    20   18   19       2
    21   19   20       1
    22   20   21      ar
    23   20   26      ar
    24   21   22       1
    25   21   23      ar
    26   23   24      ar
    27   24   25      ar
    28   25   26      ar
    29    1   27       1
    30    1   28       1
    31    2   29       1
    32    3   30       1
    33    5   31       1
    34    5   32       1
    35    6   33       1
    36    6   34       1
    37    8   35       1
    38    8   36       1
    39    8   37       1
    40    9   38       1
    41    9   39       1
    42   10   40       1
    43   12   41       1
    44   13   42       1
    45   14   43       1
    46   15   44       1
    47   16   45       1
    48   18   46       1
    49   22   47       1
    50   22   48       1
    51   24   49       1
    52    1   50       1
@<TRIPOS>SUBSTRUCTURE
     1 SAM228      1 GROUP             4 F     SAM     0 **** SAM F 228
