@<TRIPOS>MOLECULE
3h9j_APC_6_ligand
   45    47     1     0     0
SMALL
NO_CHARGES


@<TRIPOS>ATOM
     1 PG          -3.2480    17.1490    10.1440 P.3          1 APC359   0.0000
     2 O1G         -4.5320    16.3490    10.1520 O.co2        1 APC359   0.0000
     3 O2G         -2.8040    17.6540    11.5010 O.co2        1 APC359  -1.0000
     4 O3G         -3.1910    18.1800     9.0340 O.co2        1 APC359  -1.0000
     5 PB          -0.5270    16.3070     9.8350 P.3          1 APC359   0.0000
     6 O1B         -0.0410    15.3830    10.9350 O.co2        1 APC359   0.0000
     7 O2B         -0.2730    17.7920     9.9770 O.co2        1 APC359  -1.0000
     8 O3B         -2.1250    16.0570     9.7360 O.3          1 APC359   0.0000
     9 PA           1.3510    14.4490     8.3950 P.3          1 APC359   0.0000
    10 O1A          0.6310    13.2160     8.8970 O.co2        1 APC359   0.0000
    11 O2A          2.1130    14.3560     7.0880 O.co2        1 APC359  -1.0000
    12 C3A          0.1570    15.8060     8.2280 C.3          1 APC359   0.0000
    13 O5'          2.3880    14.8650     9.5580 O.3          1 APC359   0.0000
    14 C5'          3.7150    15.3330     9.3170 C.3          1 APC359   0.0000
    15 C4'          4.4570    15.3440    10.6500 C.3          1 APC359   0.0000
    16 O4'          5.6750    16.0860    10.5190 O.3          1 APC359   0.0000
    17 C3'          3.6380    15.9960    11.7630 C.3          1 APC359   0.0000
    18 O3'          3.5680    15.1260    12.8980 O.3          1 APC359   0.0000
    19 C2'          4.3770    17.2720    12.1110 C.3          1 APC359   0.0000
    20 O2'          4.4240    17.5130    13.5180 O.3          1 APC359   0.0000
    21 C1'          5.7790    17.0370    11.5780 C.3          1 APC359   0.0000
    22 N9           6.3720    18.3050    11.0980 N.pl3        1 APC359   0.0000
    23 C8           5.8700    19.1510    10.1850 C.2          1 APC359   0.0000
    24 N7           6.7230    20.1890    10.0330 N.2          1 APC359   0.0000
    25 C5           7.7650    19.9800    10.8640 C.ar         1 APC359   0.0000
    26 C6           8.9280    20.6830    11.1520 C.ar         1 APC359   0.0000
    27 N6           9.2020    21.8520    10.5310 N.pl3        1 APC359   0.0000
    28 N1           9.7920    20.1830    12.0640 N.ar         1 APC359   0.0000
    29 C2           9.5470    19.0220    12.6950 C.ar         1 APC359   0.0000
    30 N3           8.4300    18.3270    12.4420 N.ar         1 APC359   0.0000
    31 C4           7.5320    18.7880    11.5330 C.ar         1 APC359   0.0000
    32 H3A1         0.6160    16.5914     7.8128 H            1 APC359   0.0000
    33 H3A2        -0.5920    15.5069     7.6368 H            1 APC359   0.0000
    34 H5'1         3.6856    16.2574     8.9368 H            1 APC359   0.0000
    35 H5'2         4.1791    14.7230     8.6747 H            1 APC359   0.0000
    36 H4'          4.6736    14.4034    10.9115 H            1 APC359   0.0000
    37 H3'          2.7178    16.2090    11.4345 H            1 APC359   0.0000
    38 H7           4.4915    14.9427    13.2349 H            1 APC359   0.0000
    39 H2'          3.9578    18.0501    11.6432 H            1 APC359   0.0000
    40 H9           4.8919    16.7540    13.9707 H            1 APC359   0.0000
    41 H1'          6.3507    16.6595    12.3064 H            1 APC359   0.0000
    42 H11          5.0055    19.0328     9.6965 H            1 APC359   0.0000
    43 H12         10.0428    22.3481    10.7475 H            1 APC359   0.0000
    44 H13          8.5639    22.2207     9.8551 H            1 APC359   0.0000
    45 H14         10.2061    18.6728    13.3611 H            1 APC359   0.0000
@<TRIPOS>BOND
     1    1    2      ar
     2    1    3      ar
     3    1    4      ar
     4    1    8       1
     5    5    6      ar
     6    5    7      ar
     7    5    8       1
     8    5   12       1
     9    9   10      ar
    10    9   11      ar
    11    9   12       1
    12    9   13       1
    13   13   14       1
    14   14   15       1
    15   15   16       1
    16   15   17       1
    17   16   21       1
    18   17   18       1
    19   17   19       1
    20   19   20       1
    21   19   21       1
    22   21   22       1
    23   22   23       1
    24   22   31       1
    25   23   24       2
    26   24   25       1
    27   25   26      ar
    28   25   31      ar
    29   26   27       1
    30   26   28      ar
    31   28   29      ar
    32   29   30      ar
    33   30   31      ar
    34   29   45       1
    35   27   44       1
    36   27   43       1
    37   23   42       1
    38   12   32       1
    39   12   33       1
    40   14   34       1
    41   14   35       1
    42   15   36       1
    43   17   37       1
    44   18   38       1
    45   19   39       1
    46   20   40       1
    47   21   41       1
@<TRIPOS>SUBSTRUCTURE
     1 APC359      1 GROUP             4 B     APC     0 **** APC B 359
