@<TRIPOS>MOLECULE
3tlk_EB4_3_ligand
   69    72     1     0     0
SMALL
NO_CHARGES


@<TRIPOS>ATOM
     1 O6          -9.3570   -27.3380   -26.5130 O.3          1 EB4328  -1.0000
     2 O4          -8.3400   -27.8930   -24.0900 O.3          1 EB4328  -1.0000
     3 O5          -6.5450   -27.9630   -26.2870 O.3          1 EB4328  -1.0000
     4 N1          -8.0740   -22.9300   -22.6740 N.am         1 EB4328   0.0000
     5 C5          -5.2740   -27.5280   -26.5560 C.ar         1 EB4328   0.0000
     6 C4          -8.7700   -27.2370   -22.9450 C.ar         1 EB4328   0.0000
     7 C1          -8.5330   -25.7340   -22.8380 C.ar         1 EB4328   0.0000
     8 C2          -4.9390   -26.2270   -26.1780 C.ar         1 EB4328   0.0000
     9 C6          -9.9450   -26.4710   -27.4140 C.ar         1 EB4328   0.0000
    10 C8          -4.2780   -28.3820   -27.3240 C.ar         1 EB4328   0.0000
    11 N2          -4.3400   -23.4560   -25.7110 N.am         1 EB4328   0.0000
    12 C9         -11.1710   -26.8830   -28.2180 C.ar         1 EB4328   0.0000
    13 C10         -9.7520   -27.1930   -20.6270 C.ar         1 EB4328   0.0000
    14 O3          -8.2760   -24.8270   -26.8750 O.3          1 EB4328  -1.0000
    15 N3          -8.6890   -22.3690   -27.5380 N.am         1 EB4328   0.0000
    16 C16         -8.9170   -25.0220   -21.6330 C.ar         1 EB4328   0.0000
    17 C7          -9.3510   -27.9390   -21.8690 C.ar         1 EB4328   0.0000
    18 C3          -9.4040   -25.1570   -27.5920 C.ar         1 EB4328   0.0000
    19 C11         -3.0330   -27.8710   -27.6480 C.ar         1 EB4328   0.0000
    20 O1          -8.0470   -25.1050   -23.9790 O.3          1 EB4328  -1.0000
    21 O2          -5.8810   -25.5120   -25.4470 O.3          1 EB4328  -1.0000
    22 C12        -11.7840   -25.9690   -29.0960 C.ar         1 EB4328   0.0000
    23 C15        -11.2370   -24.6410   -29.2900 C.ar         1 EB4328   0.0000
    24 C14         -2.6650   -26.4880   -27.2520 C.ar         1 EB4328   0.0000
    25 C13         -9.5300   -25.7440   -20.5010 C.ar         1 EB4328   0.0000
    26 O7          -8.5270   -22.9500   -20.4730 O.2          1 EB4328   0.0000
    27 C19         -8.6310   -23.5390   -21.5280 C.2          1 EB4328   0.0000
    28 C22         -7.6920   -21.5440   -22.6080 C.3          1 EB4328   0.0000
    29 C25         -8.2060   -20.7000   -23.7820 C.2          1 EB4328   0.0000
    30 O10         -8.9250   -19.7330   -23.4320 O.2          1 EB4328   0.0000
    31 O15         -8.6320   -21.1750   -25.0520 O.3          1 EB4328   0.0000
    32 C30         -9.1320   -20.3510   -26.1280 C.3          1 EB4328   0.0000
    33 C24         -8.4170   -20.9880   -27.3210 C.3          1 EB4328   0.0000
    34 C21         -9.5260   -22.8120   -28.6300 C.2          1 EB4328   0.0000
    35 C18        -10.0270   -24.2390   -28.5150 C.ar         1 EB4328   0.0000
    36 O9          -9.9590   -21.9910   -29.4340 O.2          1 EB4328   0.0000
    37 C27         -6.9220   -20.7560   -27.3400 C.2          1 EB4328   0.0000
    38 O12         -6.5690   -19.5720   -27.6250 O.2          1 EB4328   0.0000
    39 C28         -6.2000   -21.3120   -22.3680 C.3          1 EB4328   0.0000
    40 O13         -5.5800   -22.0810   -23.4170 O.3          1 EB4328   0.0000
    41 C26         -4.8820   -21.4340   -24.4620 C.2          1 EB4328   0.0000
    42 O11         -5.2740   -20.2290   -24.6130 O.2          1 EB4328   0.0000
    43 C23         -4.1890   -22.0070   -25.7000 C.3          1 EB4328   0.0000
    44 C29         -4.4770   -21.2610   -27.0380 C.3          1 EB4328   0.0000
    45 O14         -5.8390   -21.6700   -27.2470 O.3          1 EB4328   0.0000
    46 C20         -3.2920   -24.2690   -26.1990 C.2          1 EB4328   0.0000
    47 O8          -2.2630   -23.7530   -26.5580 O.2          1 EB4328   0.0000
    48 C17         -3.6170   -25.6990   -26.5100 C.ar         1 EB4328   0.0000
    49 H1          -7.9472   -23.4529   -23.5169 H            1 EB4328   0.0000
    50 H2          -4.5223   -29.3130   -27.5952 H            1 EB4328   0.0000
    51 H3          -5.1834   -23.8745   -25.3740 H            1 EB4328   0.0000
    52 H4         -11.5422   -27.8066   -28.1219 H            1 EB4328   0.0000
    53 H5         -10.1779   -27.6913   -19.8718 H            1 EB4328   0.0000
    54 H6          -8.2917   -23.0479   -26.9206 H            1 EB4328   0.0000
    55 H7          -9.4953   -28.9265   -21.9317 H            1 EB4328   0.0000
    56 H8          -2.3786   -28.4357   -28.1509 H            1 EB4328   0.0000
    57 H9         -12.6085   -26.2399   -29.5928 H            1 EB4328   0.0000
    58 H10        -11.6635   -24.0046   -29.9327 H            1 EB4328   0.0000
    59 H11         -1.7718   -26.1101   -27.4958 H            1 EB4328   0.0000
    60 H12         -9.7890   -25.2586   -19.6660 H            1 EB4328   0.0000
    61 H13         -8.1513   -21.1800   -21.7978 H            1 EB4328   0.0000
    62 H14         -8.8722   -19.3925   -26.0105 H            1 EB4328   0.0000
    63 H15        -10.1260   -20.4189   -26.2139 H            1 EB4328   0.0000
    64 H16         -8.7711   -20.5157   -28.1282 H            1 EB4328   0.0000
    65 H17         -5.9247   -21.6461   -21.4666 H            1 EB4328   0.0000
    66 H18         -5.9694   -20.3423   -22.4488 H            1 EB4328   0.0000
    67 H19         -3.2143   -21.8574   -25.5339 H            1 EB4328   0.0000
    68 H20         -3.8767   -21.5713   -27.7751 H            1 EB4328   0.0000
    69 H21         -4.3962   -20.2694   -26.9374 H            1 EB4328   0.0000
@<TRIPOS>BOND
     1    1    9       1
     2    2    6       1
     3    3    5       1
     4    4   27      am
     5    4   28       1
     6    5    8      ar
     7    5   10      ar
     8    6    7      ar
     9    6   17      ar
    10    7   16      ar
    11    7   20       1
    12    8   21       1
    13    8   48      ar
    14    9   12      ar
    15    9   18      ar
    16   10   19      ar
    17   11   43       1
    18   11   46      am
    19   12   22      ar
    20   13   17      ar
    21   13   25      ar
    22   14   18       1
    23   15   33       1
    24   15   34      am
    25   16   25      ar
    26   16   27       1
    27   18   35      ar
    28   19   24      ar
    29   22   23      ar
    30   23   35      ar
    31   24   48      ar
    32   26   27       2
    33   28   29       1
    34   28   39       1
    35   29   30       2
    36   29   31       1
    37   31   32       1
    38   32   33       1
    39   33   37       1
    40   34   35       1
    41   34   36       2
    42   37   38       2
    43   37   45       1
    44   39   40       1
    45   40   41       1
    46   41   42       2
    47   41   43       1
    48   43   44       1
    49   44   45       1
    50   46   47       2
    51   46   48       1
    52   44   69       1
    53   43   67       1
    54   39   65       1
    55    4   49       1
    56   10   50       1
    57   11   51       1
    58   12   52       1
    59   13   53       1
    60   44   68       1
    61   15   54       1
    62   17   55       1
    63   19   56       1
    64   39   66       1
    65   33   64       1
    66   22   57       1
    67   23   58       1
    68   24   59       1
    69   25   60       1
    70   28   61       1
    71   32   62       1
    72   32   63       1
@<TRIPOS>SUBSTRUCTURE
     1 EB4328      1 GROUP             4 B     EB4     0 **** EB4 B 328
