@<TRIPOS>MOLECULE
3cbg_SAH_1_ligand
   46    48     1     0     0
SMALL
NO_CHARGES


@<TRIPOS>ATOM
     1 N          -31.6480    10.2820     1.0540 N.4          1 SAH301   1.0000
     2 CA         -31.1540     9.2600     0.1210 C.3          1 SAH301   0.0000
     3 CB         -31.3260     7.8720     0.7400 C.3          1 SAH301   0.0000
     4 CG         -30.5870     7.7350     2.0730 C.3          1 SAH301   0.0000
     5 SD         -30.6350     6.0120     2.6850 S.3          1 SAH301   0.0000
     6 C          -31.9630     9.3090    -1.1770 C.2          1 SAH301   0.0000
     7 O          -31.3450     9.1100    -2.2460 O.co2        1 SAH301   0.0000
     8 OXT        -33.1890     9.5250    -1.0710 O.co2        1 SAH301  -1.0000
     9 C5'        -30.1890     6.2610     4.4410 C.3          1 SAH301   0.0000
    10 C4'        -28.6970     6.5090     4.6670 C.3          1 SAH301   0.0000
    11 O4'        -28.4530     6.6920     6.0690 O.3          1 SAH301   0.0000
    12 C3'        -27.8370     5.3120     4.2490 C.3          1 SAH301   0.0000
    13 O3'        -27.0360     5.6580     3.1160 O.3          1 SAH301   0.0000
    14 C2'        -26.9410     5.0720     5.4660 C.3          1 SAH301   0.0000
    15 O2'        -25.5890     4.8900     5.0360 O.3          1 SAH301   0.0000
    16 C1'        -27.0560     6.4040     6.2090 C.3          1 SAH301   0.0000
    17 N9         -26.7590     6.2350     7.6480 N.pl3        1 SAH301   0.0000
    18 C8         -27.3360     5.3420     8.4490 C.2          1 SAH301   0.0000
    19 N7         -26.9140     5.5230     9.6980 N.2          1 SAH301   0.0000
    20 C5         -26.0570     6.5390     9.6910 C.ar         1 SAH301   0.0000
    21 C6         -25.3300     7.1920    10.6770 C.ar         1 SAH301   0.0000
    22 N6         -25.4180     6.8030    11.9460 N.pl3        1 SAH301   0.0000
    23 N1         -24.5530     8.2270    10.3270 N.ar         1 SAH301   0.0000
    24 C2         -24.4710     8.6270     9.0700 C.ar         1 SAH301   0.0000
    25 N3         -25.1500     8.0300     8.1060 N.ar         1 SAH301   0.0000
    26 C4         -25.9490     6.9910     8.3830 C.ar         1 SAH301   0.0000
    27 H1         -30.9013    10.5786     1.6494 H            1 SAH301   0.0000
    28 H2         -31.9939    11.0654     0.5377 H            1 SAH301   0.0000
    29 HA         -30.1876     9.4234    -0.0775 H            1 SAH301   0.0000
    30 HB1        -30.9689     7.1891     0.1027 H            1 SAH301   0.0000
    31 HB2        -32.3002     7.7070     0.8939 H            1 SAH301   0.0000
    32 HG1        -31.0193     8.3327     2.7481 H            1 SAH301   0.0000
    33 HG2        -29.6337     8.0095     1.9467 H            1 SAH301   0.0000
    34 H5'1       -30.4544     5.4441     4.9531 H            1 SAH301   0.0000
    35 H5'2       -30.6962     7.0505     4.7867 H            1 SAH301   0.0000
    36 H4'        -28.4095     7.3242     4.1642 H            1 SAH301   0.0000
    37 H3'        -28.4045     4.5113     4.0570 H            1 SAH301   0.0000
    38 H12        -26.4398     6.4256     3.3512 H            1 SAH301   0.0000
    39 H2'        -27.2628     4.3053     6.0215 H            1 SAH301   0.0000
    40 H14        -25.1255     5.7757     5.0096 H            1 SAH301   0.0000
    41 H1'        -26.4866     7.1127     5.7924 H            1 SAH301   0.0000
    42 H16        -27.9874     4.6418     8.1567 H            1 SAH301   0.0000
    43 H17        -24.8919     7.2772    12.6520 H            1 SAH301   0.0000
    44 H18        -26.0102     6.0364    12.1940 H            1 SAH301   0.0000
    45 H19        -23.8802     9.4011     8.8425 H            1 SAH301   0.0000
    46 H20        -32.3850     9.8975     1.6099 H            1 SAH301   0.0000
@<TRIPOS>BOND
     1    1    2       1
     2    2    3       1
     3    2    6       1
     4    3    4       1
     5    4    5       1
     6    5    9       1
     7    6    7      ar
     8    6    8      ar
     9    9   10       1
    10   10   11       1
    11   10   12       1
    12   11   16       1
    13   12   13       1
    14   12   14       1
    15   14   15       1
    16   14   16       1
    17   16   17       1
    18   17   18       1
    19   17   26       1
    20   18   19       2
    21   19   20       1
    22   20   21      ar
    23   20   26      ar
    24   21   22       1
    25   21   23      ar
    26   23   24      ar
    27   24   25      ar
    28   25   26      ar
    29    1   27       1
    30    1   28       1
    31    2   29       1
    32    3   30       1
    33    3   31       1
    34    4   32       1
    35    4   33       1
    36    1   46       1
    37    9   34       1
    38    9   35       1
    39   10   36       1
    40   12   37       1
    41   13   38       1
    42   14   39       1
    43   15   40       1
    44   16   41       1
    45   18   42       1
    46   22   43       1
    47   22   44       1
    48   24   45       1
@<TRIPOS>SUBSTRUCTURE
     1 SAH301      1 GROUP             4 A     SAH     0 **** SAH A 301
