@<TRIPOS>MOLECULE
1rkw_PNT_1_ligand
   51    52     1     0     0
SMALL
NO_CHARGES


@<TRIPOS>ATOM
     1 C1         -67.7810   -44.6000     1.5050 C.ar         1 PNT225   0.0000
     2 C2         -67.3030   -43.2690     1.6030 C.ar         1 PNT225   0.0000
     3 C3         -68.2410   -42.2270     1.7070 C.ar         1 PNT225   0.0000
     4 C4         -69.6730   -42.4720     1.7250 C.ar         1 PNT225   0.0000
     5 C5         -70.0980   -43.8120     1.6360 C.ar         1 PNT225   0.0000
     6 C6         -69.2000   -44.8430     1.5240 C.ar         1 PNT225   0.0000
     7 C7         -65.6190   -45.3210     0.8430 C.3          1 PNT225   0.0000
     8 C8         -65.1670   -46.7530     0.9750 C.3          1 PNT225   0.0000
     9 C9         -70.5910   -41.4730     1.8270 C.cat        1 PNT225   0.0000
    10 C10        -63.7210   -46.4610     0.8340 C.3          1 PNT225   0.0000
    11 C1'        -59.4130   -45.6260     2.3000 C.ar         1 PNT225   0.0000
    12 C2'        -59.0970   -44.6870     1.3190 C.ar         1 PNT225   0.0000
    13 C3'        -57.7580   -44.5740     0.9070 C.ar         1 PNT225   0.0000
    14 C4'        -56.7110   -45.3860     1.4650 C.ar         1 PNT225   0.0000
    15 C5'        -57.0420   -46.3070     2.4290 C.ar         1 PNT225   0.0000
    16 C6'        -58.3750   -46.4330     2.8520 C.ar         1 PNT225   0.0000
    17 C7'        -61.5490   -46.0340     1.6250 C.3          1 PNT225   0.0000
    18 C8'        -62.9460   -46.2820     2.1070 C.3          1 PNT225   0.0000
    19 C9'        -55.3950   -45.2630     1.0490 C.cat        1 PNT225   0.0000
    20 O1         -66.9580   -45.6400     1.4110 O.3          1 PNT225   0.0000
    21 O1'        -60.6620   -45.8050     2.7390 O.3          1 PNT225   0.0000
    22 N1         -70.1720   -40.2150     1.8820 N.pl3        1 PNT225   1.0000
    23 N2         -71.9330   -41.7260     1.8760 N.pl3        1 PNT225   0.0000
    24 N1'        -55.0940   -44.3390     0.0920 N.pl3        1 PNT225   1.0000
    25 N2'        -54.3560   -46.0540     1.5790 N.pl3        1 PNT225   0.0000
    26 H1         -66.3218   -43.0759     1.5983 H            1 PNT225   0.0000
    27 H2         -67.9114   -41.2850     1.7708 H            1 PNT225   0.0000
    28 H3         -71.0767   -44.0164     1.6549 H            1 PNT225   0.0000
    29 H4         -69.5376   -45.7817     1.4542 H            1 PNT225   0.0000
    30 H5         -65.6509   -44.9955    -0.1020 H            1 PNT225   0.0000
    31 H6         -65.0895   -44.6800     1.3986 H            1 PNT225   0.0000
    32 H7         -65.5174   -47.3393     0.2446 H            1 PNT225   0.0000
    33 H8         -65.3974   -47.1523     1.8624 H            1 PNT225   0.0000
    34 H9         -63.6317   -45.6183     0.3030 H            1 PNT225   0.0000
    35 H10        -63.3060   -47.2183     0.3297 H            1 PNT225   0.0000
    36 H2'        -59.8064   -44.1075     0.9179 H            1 PNT225   0.0000
    37 H3'        -57.5254   -43.9052     0.2009 H            1 PNT225   0.0000
    38 H5'        -56.3334   -46.8879     2.8296 H            1 PNT225   0.0000
    39 H6'        -58.6018   -47.1047     3.5572 H            1 PNT225   0.0000
    40 H7'1       -61.5442   -45.2302     1.0302 H            1 PNT225   0.0000
    41 H7'2       -61.2322   -46.8310     1.1108 H            1 PNT225   0.0000
    42 H8'1       -62.9894   -47.1058     2.6722 H            1 PNT225   0.0000
    43 H8'2       -63.2892   -45.5012     2.6290 H            1 PNT225   0.0000
    44 H19        -70.8349   -39.4700     1.9571 H            1 PNT225   0.0000
    45 H20        -69.1934   -40.0120     1.8484 H            1 PNT225   0.0000
    46 H21        -72.5821   -40.9690     1.9511 H            1 PNT225   0.0000
    47 H1'1       -54.1506   -44.2340    -0.2224 H            1 PNT225   0.0000
    48 H1'2       -55.8168   -43.7666    -0.2952 H            1 PNT225   0.0000
    49 H2'1       -53.4190   -45.9337     1.2511 H            1 PNT225   0.0000
    50 H25        -72.2660   -42.6681     1.8368 H            1 PNT225   0.0000
    51 H2'2       -54.5558   -46.7356     2.2829 H            1 PNT225   0.0000
@<TRIPOS>BOND
     1    1    2      ar
     2    1    6      ar
     3    1   20       1
     4    2    3      ar
     5    3    4      ar
     6    4    5      ar
     7    4    9       1
     8    5    6      ar
     9    7    8       1
    10    7   20       1
    11    8   10       1
    12    9   22      ar
    13    9   23      ar
    14   10   18       1
    15   11   12      ar
    16   11   16      ar
    17   11   21       1
    18   12   13      ar
    19   13   14      ar
    20   14   15      ar
    21   14   19       1
    22   15   16      ar
    23   17   18       1
    24   17   21       1
    25   19   24      ar
    26   19   25      ar
    27    2   26       1
    28    3   27       1
    29    5   28       1
    30    6   29       1
    31    7   30       1
    32    7   31       1
    33    8   32       1
    34    8   33       1
    35   10   34       1
    36   10   35       1
    37   12   36       1
    38   13   37       1
    39   15   38       1
    40   16   39       1
    41   17   40       1
    42   17   41       1
    43   18   42       1
    44   18   43       1
    45   22   44       1
    46   22   45       1
    47   23   46       1
    48   24   47       1
    49   24   48       1
    50   25   49       1
    51   23   50       1
    52   25   51       1
@<TRIPOS>SUBSTRUCTURE
     1 PNT225      1 GROUP             4 A     PNT     0 **** PNT A 225
