@<TRIPOS>MOLECULE
3rj9_NAD_1_ligand
   70    74     1     0     0
SMALL
NO_CHARGES


@<TRIPOS>ATOM
     1 PA          27.0410    11.0180   -16.0700 P.3          1 NAD850   0.0000
     2 O1A         28.1320    11.8410   -15.4740 O.co2        1 NAD850   0.0000
     3 O2A         26.6450    11.1610   -17.5350 O.co2        1 NAD850  -1.0000
     4 O5B         25.6970    11.2700   -15.2170 O.3          1 NAD850   0.0000
     5 C5B         25.7730    11.5990   -13.8270 C.3          1 NAD850   0.0000
     6 C4B         24.3810    12.0050   -13.3460 C.3          1 NAD850   0.0000
     7 O4B         24.4300    12.2480   -11.9310 O.3          1 NAD850   0.0000
     8 C3B         23.9420    13.3120   -13.9900 C.3          1 NAD850   0.0000
     9 O3B         22.5230    13.2750   -14.2460 O.3          1 NAD850   0.0000
    10 C2B         24.2980    14.3150   -12.9090 C.3          1 NAD850   0.0000
    11 O2B         23.6230    15.5600   -13.0030 O.3          1 NAD850   0.0000
    12 C1B         23.9290    13.5480   -11.6570 C.3          1 NAD850   0.0000
    13 N9A         24.5610    14.1390   -10.4630 N.pl3        1 NAD850   0.0000
    14 C8A         25.8830    14.2170   -10.2310 C.2          1 NAD850   0.0000
    15 N7A         26.0870    14.8320    -9.0610 N.2          1 NAD850   0.0000
    16 C5A         24.8660    15.1190    -8.5460 C.ar         1 NAD850   0.0000
    17 C6A         24.4520    15.7480    -7.3840 C.ar         1 NAD850   0.0000
    18 N6A         25.3790    16.1910    -6.5050 N.pl3        1 NAD850   0.0000
    19 N1A         23.1140    15.9070    -7.1480 N.ar         1 NAD850   0.0000
    20 C2A         22.1920    15.4740    -8.0350 C.ar         1 NAD850   0.0000
    21 N3A         22.5650    14.8600    -9.1810 N.ar         1 NAD850   0.0000
    22 C4A         23.9010    14.6880    -9.4460 C.ar         1 NAD850   0.0000
    23 O3          27.4090     9.4970   -15.8310 O.3          1 NAD850   0.0000
    24 PN          26.5230     8.1790   -16.0230 P.3          1 NAD850   0.0000
    25 O1N         27.4410     7.1200   -16.5630 O.co2        1 NAD850   0.0000
    26 O2N         25.2070     8.4930   -16.6870 O.co2        1 NAD850  -1.0000
    27 O5D         26.2020     7.8500   -14.4740 O.3          1 NAD850   0.0000
    28 C5D         24.8740     7.6470   -13.9670 C.3          1 NAD850   0.0000
    29 C4D         24.9590     6.6700   -12.7910 C.3          1 NAD850   0.0000
    30 O4D         25.3710     5.3790   -13.2580 O.3          1 NAD850   0.0000
    31 C3D         25.9720     7.0480   -11.7150 C.3          1 NAD850   0.0000
    32 O3D         25.4970     6.5760   -10.4430 O.3          1 NAD850   0.0000
    33 C2D         27.1910     6.2120   -12.0550 C.3          1 NAD850   0.0000
    34 O2D         27.9910     6.0060   -10.8880 O.3          1 NAD850   0.0000
    35 C1D         26.5140     4.9330   -12.5100 C.3          1 NAD850   0.0000
    36 N1N         27.3320     3.9790   -13.2720 N.ar         1 NAD850   1.0000
    37 C2N         27.9080     4.3410   -14.4460 C.ar         1 NAD850   0.0000
    38 C3N         28.6720     3.4290   -15.1750 C.ar         1 NAD850   0.0000
    39 C7N         29.3400     3.8020   -16.4950 C.2          1 NAD850   0.0000
    40 O7N         30.1540     3.0400   -16.9810 O.2          1 NAD850   0.0000
    41 N7N         29.0410     4.9260   -17.1420 N.am         1 NAD850   0.0000
    42 C4N         28.8100     2.1350   -14.6620 C.ar         1 NAD850   0.0000
    43 C5N         28.1950     1.7790   -13.4550 C.ar         1 NAD850   0.0000
    44 C6N         27.4380     2.7270   -12.7790 C.ar         1 NAD850   0.0000
    45 H5B1        26.4100    12.3584   -13.6948 H            1 NAD850   0.0000
    46 H5B2        26.0899    10.8042   -13.3094 H            1 NAD850   0.0000
    47 H4B         23.7212    11.2816   -13.5492 H            1 NAD850   0.0000
    48 H3B         24.4550    13.4900   -14.8297 H            1 NAD850   0.0000
    49 H5          22.1506    14.2016   -14.1936 H            1 NAD850   0.0000
    50 H2B         25.2852    14.4739   -12.9191 H            1 NAD850   0.0000
    51 H7          22.7692    15.5163   -12.4842 H            1 NAD850   0.0000
    52 H1B         22.9355    13.5210   -11.5465 H            1 NAD850   0.0000
    53 H8A         26.5994    13.8705   -10.8366 H            1 NAD850   0.0000
    54 H6A1        25.0917    16.6467    -5.6625 H            1 NAD850   0.0000
    55 H6A2        26.3519    16.0629    -6.6974 H            1 NAD850   0.0000
    56 H2A         21.2202    15.6092    -7.8418 H            1 NAD850   0.0000
    57 H5D1        24.2919     7.2643   -14.6844 H            1 NAD850   0.0000
    58 H5D2        24.4924     8.5179   -13.6574 H            1 NAD850   0.0000
    59 H4D         24.0551     6.5893   -12.3709 H            1 NAD850   0.0000
    60 H3D         26.1720     8.0278   -11.7073 H            1 NAD850   0.0000
    61 H17         25.8275     7.1808    -9.7185 H            1 NAD850   0.0000
    62 H2D         27.7229     6.6260   -12.7937 H            1 NAD850   0.0000
    63 H19         28.2906     6.8899   -10.5290 H            1 NAD850   0.0000
    64 H1D         26.1779     4.4611   -11.6949 H            1 NAD850   0.0000
    65 H2N         27.7837     5.2709   -14.7923 H            1 NAD850   0.0000
    66 H7N1        29.4966     5.1422   -18.0056 H            1 NAD850   0.0000
    67 H7N2        28.3608     5.5544   -16.7646 H            1 NAD850   0.0000
    68 H4N         29.3520     1.4588   -15.1609 H            1 NAD850   0.0000
    69 H5N         28.2995     0.8557   -13.0854 H            1 NAD850   0.0000
    70 H6N         26.9723     2.4825   -11.9285 H            1 NAD850   0.0000
@<TRIPOS>BOND
     1    1    2      ar
     2    1    3      ar
     3    1    4       1
     4    1   23       1
     5    4    5       1
     6    5    6       1
     7    6    7       1
     8    6    8       1
     9    7   12       1
    10    8    9       1
    11    8   10       1
    12   10   11       1
    13   10   12       1
    14   12   13       1
    15   13   14       1
    16   13   22       1
    17   14   15       2
    18   15   16       1
    19   16   17      ar
    20   16   22      ar
    21   17   18       1
    22   17   19      ar
    23   19   20      ar
    24   20   21      ar
    25   21   22      ar
    26   23   24       1
    27   24   25      ar
    28   24   26      ar
    29   24   27       1
    30   27   28       1
    31   28   29       1
    32   29   30       1
    33   29   31       1
    34   30   35       1
    35   31   32       1
    36   31   33       1
    37   33   34       1
    38   33   35       1
    39   35   36       1
    40   36   37      ar
    41   36   44      ar
    42   37   38      ar
    43   38   39       1
    44   38   42      ar
    45   39   40       2
    46   39   41      am
    47   42   43      ar
    48   43   44      ar
    49   44   70       1
    50    5   45       1
    51    5   46       1
    52    6   47       1
    53    8   48       1
    54    9   49       1
    55   10   50       1
    56   11   51       1
    57   12   52       1
    58   14   53       1
    59   18   54       1
    60   18   55       1
    61   20   56       1
    62   43   69       1
    63   28   57       1
    64   28   58       1
    65   29   59       1
    66   31   60       1
    67   32   61       1
    68   33   62       1
    69   34   63       1
    70   35   64       1
    71   37   65       1
    72   41   66       1
    73   41   67       1
    74   42   68       1
@<TRIPOS>SUBSTRUCTURE
     1 NAD850      1 GROUP             4 A     NAD     0 **** NAD A 850
