@<TRIPOS>MOLECULE
4ku5_DCC_1_ligand
  115   117     1     0     0
SMALL
NO_CHARGES


@<TRIPOS>ATOM
     1 C2          -6.4060    11.0500   -45.5470 C.ar         1 DCC403   0.0000
     2 C4          -8.5120    11.5610   -46.5000 C.ar         1 DCC403   0.0000
     3 C5          -9.1250    11.2680   -45.2570 C.ar         1 DCC403   0.0000
     4 C6          -8.3160    10.8730   -44.1980 C.ar         1 DCC403   0.0000
     5 C8         -10.6840    11.8510   -46.6570 C.2          1 DCC403   0.0000
     6 C10         -3.5720    17.5010   -27.8220 C.3          1 DCC403   0.0000
     7 C11         -3.9370    16.0630   -27.6000 C.3          1 DCC403   0.0000
     8 C12         -2.6840    15.2480   -27.6280 C.3          1 DCC403   0.0000
     9 N9          -9.5360    11.9240   -47.3550 N.pl3        1 DCC403   0.0000
    10 N7         -10.4380    11.4560   -45.4120 N.2          1 DCC403   0.0000
    11 N3          -7.1660    11.4420   -46.6110 N.ar         1 DCC403   0.0000
    12 N1          -6.9870    10.7750   -44.3650 N.ar         1 DCC403   0.0000
    13 N6          -8.9000    10.5660   -42.9190 N.pl3        1 DCC403   0.0000
    14 C1'         -9.3960    12.3180   -48.7510 C.3          1 DCC403   0.0000
    15 C2'         -9.9000    11.2890   -49.6830 C.3          1 DCC403   0.0000
    16 O2'         -8.9360    10.3520   -49.9610 O.3          1 DCC403   0.0000
    17 C3'        -10.2130    12.1060   -50.8700 C.3          1 DCC403   0.0000
    18 O3'         -9.0490    12.3240   -51.5860 O.3          1 DCC403   0.0000
    19 C4'        -10.7680    13.3630   -50.2510 C.3          1 DCC403   0.0000
    20 O4'        -10.1060    13.5080   -49.0150 O.3          1 DCC403   0.0000
    21 C5'        -12.2880    13.3820   -50.1130 C.3          1 DCC403   0.0000
    22 O5'        -12.6910    13.3670   -48.7580 O.3          1 DCC403   0.0000
    23 P1         -14.2340    13.3210   -48.3380 P.3          1 DCC403   0.0000
    24 O11        -14.5770    13.7780   -49.7880 O.co2        1 DCC403   0.0000
    25 O12        -13.9040    11.8150   -48.0910 O.co2        1 DCC403  -1.0000
    26 O6         -13.7850    14.4090   -47.2780 O.3          1 DCC403   0.0000
    27 P2         -14.8200    14.9410   -46.1870 P.3          1 DCC403   0.0000
    28 O21        -15.3140    15.8690   -47.3420 O.co2        1 DCC403   0.0000
    29 O22        -15.3240    13.4560   -46.1680 O.co2        1 DCC403  -1.0000
    30 O7         -13.4860    15.3300   -45.3910 O.3          1 DCC403   0.0000
    31 CPA        -12.5450    14.3370   -45.0080 C.3          1 DCC403   0.0000
    32 CPB        -11.5730    14.9650   -44.0080 C.3          1 DCC403   0.0000
    33 CP8        -12.4370    15.4900   -42.7420 C.3          1 DCC403   0.0000
    34 CP7        -10.8320    16.0920   -44.6450 C.3          1 DCC403   0.0000
    35 CP9        -10.5760    13.9780   -43.5150 C.3          1 DCC403   0.0000
    36 OP3        -13.0380    14.4230   -41.9050 O.3          1 DCC403   0.0000
    37 CP6        -11.8000    16.7390   -41.9380 C.2          1 DCC403   0.0000
    38 OP2        -11.9800    17.8560   -42.3910 O.2          1 DCC403   0.0000
    39 NP2        -11.0130    16.5760   -40.7180 N.am         1 DCC403   0.0000
    40 CP5        -10.7230    15.2940   -40.0790 C.3          1 DCC403   0.0000
    41 CP4        -10.1440    15.5960   -38.7110 C.3          1 DCC403   0.0000
    42 CP3        -11.1040    15.2320   -37.5930 C.2          1 DCC403   0.0000
    43 OP1        -11.8620    14.2860   -37.6980 O.2          1 DCC403   0.0000
    44 NP1        -11.1280    16.0240   -36.3700 N.am         1 DCC403   0.0000
    45 CP2        -12.0540    15.6720   -35.2970 C.3          1 DCC403   0.0000
    46 CP1        -11.4120    14.6710   -34.3470 C.3          1 DCC403   0.0000
    47 S          -10.0980    15.4880   -33.4330 S.3          1 DCC403   0.0000
    48 P3          -9.0050    12.2940   -53.1530 P.3          1 DCC403   0.0000
    49 O31         -9.2250    13.6920   -53.6780 O.co2        1 DCC403   0.0000
    50 O32         -7.6500    11.8110   -53.6050 O.co2        1 DCC403  -1.0000
    51 O33        -10.0790    11.3850   -53.6910 O.co2        1 DCC403  -1.0000
    52 CA1        -10.4770    15.4880   -31.6820 C.2          1 DCC403   0.0000
    53 CA2         -9.7340    16.4540   -30.7760 C.3          1 DCC403   0.0000
    54 OA1        -11.5530    15.0390   -31.3230 O.2          1 DCC403   0.0000
    55 CA3         -9.5150    15.8830   -29.3820 C.3          1 DCC403   0.0000
    56 CA4         -9.5430    17.0220   -28.3610 C.3          1 DCC403   0.0000
    57 CA5         -8.1310    17.4390   -27.9660 C.3          1 DCC403   0.0000
    58 CA6         -7.6840    18.6230   -28.8140 C.3          1 DCC403   0.0000
    59 CA7         -6.7370    19.4960   -28.0120 C.3          1 DCC403   0.0000
    60 CA8         -5.3030    19.1730   -28.3940 C.3          1 DCC403   0.0000
    61 CA9         -4.6740    18.3740   -27.2760 C.3          1 DCC403   0.0000
    62 H1          -5.4144    10.9670   -45.6463 H            1 DCC403   0.0000
    63 H2         -11.5906    12.0631   -47.0219 H            1 DCC403   0.0000
    64 H3          -3.4619    17.6722   -28.8011 H            1 DCC403   0.0000
    65 H4          -2.7152    17.7068   -27.3492 H            1 DCC403   0.0000
    66 H5          -4.5557    15.7561   -28.3232 H            1 DCC403   0.0000
    67 H6          -4.3859    15.9618   -26.7122 H            1 DCC403   0.0000
    68 H7          -2.9095    14.2849   -27.4813 H            1 DCC403   0.0000
    69 H8          -2.2371    15.3542   -28.5162 H            1 DCC403   0.0000
    70 H9          -2.0673    15.5598   -26.9052 H            1 DCC403   0.0000
    71 H10         -8.3165    10.2820   -42.1582 H            1 DCC403   0.0000
    72 H11         -9.8893    10.6367   -42.7911 H            1 DCC403   0.0000
    73 H1'         -8.4272    12.4752   -48.9426 H            1 DCC403   0.0000
    74 H2'        -10.7252    10.8547   -49.3218 H            1 DCC403   0.0000
    75 H14         -9.0783     9.9906   -50.8825 H            1 DCC403   0.0000
    76 H3'        -10.9014    11.6564   -51.4393 H            1 DCC403   0.0000
    77 H4'        -10.5037    14.1328   -50.8320 H            1 DCC403   0.0000
    78 H5'1       -12.6650    12.5775   -50.5720 H            1 DCC403   0.0000
    79 H5'2       -12.6424    14.2102   -50.5472 H            1 DCC403   0.0000
    80 HPA1       -12.0442    14.0164   -45.8120 H            1 DCC403   0.0000
    81 HPA2       -13.0194    13.5668   -44.5818 H            1 DCC403   0.0000
    82 HP8        -13.2374    15.8992   -43.1800 H            1 DCC403   0.0000
    83 HP71       -10.2007    16.4933   -43.9813 H            1 DCC403   0.0000
    84 HP72       -10.3166    15.7501   -45.4308 H            1 DCC403   0.0000
    85 HP73       -11.4819    16.7881   -44.9499 H            1 DCC403   0.0000
    86 HP91        -9.9595    14.4230   -42.8655 H            1 DCC403   0.0000
    87 HP92       -11.0502    13.2235   -43.0612 H            1 DCC403   0.0000
    88 HP93       -10.0479    13.6238   -44.2868 H            1 DCC403   0.0000
    89 HP3        -13.9485    14.1996   -42.2529 H            1 DCC403   0.0000
    90 HP2        -10.6461    17.4015   -40.2890 H            1 DCC403   0.0000
    91 HP51       -10.0612    14.7807   -40.6254 H            1 DCC403   0.0000
    92 HP52       -11.5633    14.7601   -39.9851 H            1 DCC403   0.0000
    93 HP41        -9.9399    16.5734   -38.6556 H            1 DCC403   0.0000
    94 HP42        -9.3001    15.0722   -38.5950 H            1 DCC403   0.0000
    95 HP1        -10.5128    16.8055   -36.2659 H            1 DCC403   0.0000
    96 HP21       -12.8785    15.2679   -35.6930 H            1 DCC403   0.0000
    97 HP22       -12.2985    16.4979   -34.7890 H            1 DCC403   0.0000
    98 HP11       -11.0318    13.9086   -34.8706 H            1 DCC403   0.0000
    99 HP12       -12.1001    14.3265   -33.7084 H            1 DCC403   0.0000
   100 HA21       -10.2663    17.2970   -30.6986 H            1 DCC403   0.0000
   101 HA22        -8.8440    16.6580   -31.1838 H            1 DCC403   0.0000
   102 HA31        -8.6282    15.4224   -29.3449 H            1 DCC403   0.0000
   103 HA32       -10.2402    15.2274   -29.1715 H            1 DCC403   0.0000
   104 HA41       -10.0340    16.7172   -27.5449 H            1 DCC403   0.0000
   105 HA42       -10.0158    17.8073   -28.7606 H            1 DCC403   0.0000
   106 HA51        -7.5058    16.6722   -28.1114 H            1 DCC403   0.0000
   107 HA52        -8.1200    17.6996   -27.0006 H            1 DCC403   0.0000
   108 HA61        -8.4835    19.1598   -29.0836 H            1 DCC403   0.0000
   109 HA62        -7.2159    18.2885   -29.6319 H            1 DCC403   0.0000
   110 HA71        -6.8691    19.3219   -27.0362 H            1 DCC403   0.0000
   111 HA72        -6.9251    20.4585   -28.2073 H            1 DCC403   0.0000
   112 HA81        -4.7916    20.0214   -28.5307 H            1 DCC403   0.0000
   113 HA82        -5.2919    18.6374   -29.2384 H            1 DCC403   0.0000
   114 HA91        -4.2939    18.9999   -26.5950 H            1 DCC403   0.0000
   115 HA92        -5.3707    17.7986   -26.8477 H            1 DCC403   0.0000
@<TRIPOS>BOND
     1    1   11      ar
     2    1   12      ar
     3    2    3      ar
     4    2    9       1
     5    2   11      ar
     6    3    4      ar
     7    3   10       1
     8    4   12      ar
     9    4   13       1
    10    5    9       1
    11    5   10       2
    12    6    7       1
    13    6   61       1
    14    7    8       1
    15    9   14       1
    16   14   15       1
    17   14   20       1
    18   15   16       1
    19   15   17       1
    20   17   18       1
    21   17   19       1
    22   18   48       1
    23   19   20       1
    24   19   21       1
    25   21   22       1
    26   22   23       1
    27   23   24      ar
    28   23   25      ar
    29   23   26       1
    30   26   27       1
    31   27   28      ar
    32   27   29      ar
    33   27   30       1
    34   30   31       1
    35   31   32       1
    36   32   33       1
    37   32   34       1
    38   32   35       1
    39   33   36       1
    40   33   37       1
    41   37   38       2
    42   37   39      am
    43   39   40       1
    44   40   41       1
    45   41   42       1
    46   42   43       2
    47   42   44      am
    48   44   45       1
    49   45   46       1
    50   46   47       1
    51   47   52       1
    52   48   49      ar
    53   48   50      ar
    54   48   51      ar
    55   52   53       1
    56   52   54       2
    57   53   55       1
    58   55   56       1
    59   56   57       1
    60   57   58       1
    61   58   59       1
    62   59   60       1
    63   60   61       1
    64    1   62       1
    65    5   63       1
    66    6   64       1
    67    6   65       1
    68    7   66       1
    69    7   67       1
    70    8   68       1
    71    8   69       1
    72    8   70       1
    73   13   71       1
    74   13   72       1
    75   14   73       1
    76   15   74       1
    77   16   75       1
    78   17   76       1
    79   19   77       1
    80   21   78       1
    81   21   79       1
    82   61  115       1
    83   61  114       1
    84   31   80       1
    85   31   81       1
    86   33   82       1
    87   34   83       1
    88   34   84       1
    89   34   85       1
    90   35   86       1
    91   35   87       1
    92   35   88       1
    93   36   89       1
    94   39   90       1
    95   40   91       1
    96   40   92       1
    97   41   93       1
    98   41   94       1
    99   44   95       1
   100   45   96       1
   101   45   97       1
   102   46   98       1
   103   46   99       1
   104   60  113       1
   105   60  112       1
   106   53  100       1
   107   53  101       1
   108   55  102       1
   109   55  103       1
   110   56  104       1
   111   56  105       1
   112   57  106       1
   113   57  107       1
   114   58  108       1
   115   58  109       1
   116   59  110       1
   117   59  111       1
@<TRIPOS>SUBSTRUCTURE
     1 DCC403      1 GROUP             4 B     DCC     0 **** DCC B 403
