@<TRIPOS>MOLECULE
3jq3_ADP_1_ligand
   39    41     1     0     0
SMALL
NO_CHARGES


@<TRIPOS>ATOM
     1 PB          12.9700    14.9730    18.1500 P.3          1 ADP400   0.0000
     2 O1B         11.8840    14.6280    19.1420 O.co2        1 ADP400   0.0000
     3 O2B         14.3280    15.2180    18.7590 O.co2        1 ADP400  -1.0000
     4 O3B         12.9940    14.0810    16.9340 O.co2        1 ADP400  -1.0000
     5 PA          12.0230    17.6210    18.4910 P.3          1 ADP400   0.0000
     6 O1A         11.4900    17.0580    19.7870 O.co2        1 ADP400   0.0000
     7 O2A         11.1480    18.5020    17.6300 O.co2        1 ADP400  -1.0000
     8 O3A         12.5360    16.4080    17.5590 O.3          1 ADP400   0.0000
     9 O5'         13.3630    18.4580    18.8030 O.3          1 ADP400   0.0000
    10 C5'         14.1660    18.2050    19.9550 C.3          1 ADP400   0.0000
    11 C4'         15.2440    19.2800    20.0340 C.3          1 ADP400   0.0000
    12 O4'         16.2370    19.0700    19.0250 O.3          1 ADP400   0.0000
    13 C3'         14.6590    20.6650    19.8040 C.3          1 ADP400   0.0000
    14 O3'         14.8390    21.4680    20.9750 O.3          1 ADP400   0.0000
    15 C2'         15.4470    21.2660    18.6570 C.3          1 ADP400   0.0000
    16 O2'         15.9200    22.5700    19.0070 O.3          1 ADP400   0.0000
    17 C1'         16.6140    20.3190    18.4410 C.3          1 ADP400   0.0000
    18 N9          16.9250    20.1660    16.9950 N.pl3        1 ADP400   0.0000
    19 C8          16.1730    19.5270    16.0790 C.2          1 ADP400   0.0000
    20 N7          16.7530    19.5770    14.8500 N.2          1 ADP400   0.0000
    21 C5          17.9060    20.2610    14.9690 C.ar         1 ADP400   0.0000
    22 C6          19.0040    20.6770    14.0630 C.ar         1 ADP400   0.0000
    23 N6          18.9930    20.3690    12.7430 N.pl3        1 ADP400   0.0000
    24 N1          20.0220    21.3810    14.6010 N.ar         1 ADP400   0.0000
    25 C2          20.0530    21.7000    15.9100 C.ar         1 ADP400   0.0000
    26 N3          19.0940    21.3540    16.7870 N.ar         1 ADP400   0.0000
    27 C4          18.0120    20.6470    16.3850 C.ar         1 ADP400   0.0000
    28 H5'1        14.5925    17.3037    19.8784 H            1 ADP400   0.0000
    29 H5'2        13.5971    18.2358    20.7769 H            1 ADP400   0.0000
    30 H4'         15.6765    19.2491    20.9351 H            1 ADP400   0.0000
    31 H3'         13.6893    20.6014    19.5680 H            1 ADP400   0.0000
    32 H5          15.3870    22.2726    20.7464 H            1 ADP400   0.0000
    33 H2'         14.8809    21.3119    17.8340 H            1 ADP400   0.0000
    34 H7          15.5485    23.2423    18.3667 H            1 ADP400   0.0000
    35 H1'         17.4192    20.6748    18.9154 H            1 ADP400   0.0000
    36 H9          15.3029    19.0753    16.2764 H            1 ADP400   0.0000
    37 H10         19.7467    20.6623    12.1548 H            1 ADP400   0.0000
    38 H11         18.2312    19.8485    12.3573 H            1 ADP400   0.0000
    39 H12         20.8343    22.2243    16.2488 H            1 ADP400   0.0000
@<TRIPOS>BOND
     1    1    2      ar
     2    1    3      ar
     3    1    4      ar
     4    1    8       1
     5    5    6      ar
     6    5    7      ar
     7    5    8       1
     8    5    9       1
     9    9   10       1
    10   10   11       1
    11   11   12       1
    12   11   13       1
    13   12   17       1
    14   13   14       1
    15   13   15       1
    16   15   16       1
    17   15   17       1
    18   17   18       1
    19   18   19       1
    20   18   27       1
    21   19   20       2
    22   20   21       1
    23   21   22      ar
    24   21   27      ar
    25   22   23       1
    26   22   24      ar
    27   24   25      ar
    28   25   26      ar
    29   26   27      ar
    30   25   39       1
    31   23   38       1
    32   23   37       1
    33   10   28       1
    34   10   29       1
    35   11   30       1
    36   13   31       1
    37   14   32       1
    38   15   33       1
    39   16   34       1
    40   17   35       1
    41   19   36       1
@<TRIPOS>SUBSTRUCTURE
     1 ADP400      1 GROUP             4 A     ADP     0 **** ADP A 400
