@<TRIPOS>MOLECULE
1h5n_PGD_3_ligand
   72    77     1     0     0
SMALL
NO_CHARGES


@<TRIPOS>ATOM
     1 PB           7.6830    64.3530   -25.0450 P.3          1 PGD1782   0.0000
     2 O1B          6.7960    65.5110   -25.9130 O.co2        1 PGD1782   0.0000
     3 O2B          6.8030    63.0200   -24.5520 O.co2        1 PGD1782  -1.0000
     4 O3B          8.2430    65.1890   -23.7900 O.3          1 PGD1782   0.0000
     5 O3A          9.2840    66.4160   -21.7430 O.3          1 PGD1782   0.0000
     6 PA           9.5640    65.1390   -22.8550 P.3          1 PGD1782   0.0000
     7 O1A         10.8960    65.5880   -23.8480 O.co2        1 PGD1782   0.0000
     8 O2A          9.6530    63.6050   -22.1640 O.co2        1 PGD1782  -1.0000
     9 O5'          9.0910    63.9180   -25.9760 O.3          1 PGD1782   0.0000
    10 C5'          9.0790    62.5330   -26.2220 C.3          1 PGD1782   0.0000
    11 C4'          9.7190    62.3410   -27.6240 C.3          1 PGD1782   0.0000
    12 O4'         10.1420    61.0100   -27.8230 O.3          1 PGD1782   0.0000
    13 C3'          8.6640    62.6650   -28.6740 C.3          1 PGD1782   0.0000
    14 O3'          9.2150    63.6180   -29.5760 O.3          1 PGD1782   0.0000
    15 C2'          8.4290    61.3220   -29.3150 C.3          1 PGD1782   0.0000
    16 O2'          8.0620    61.3920   -30.6650 O.3          1 PGD1782   0.0000
    17 C1'          9.8070    60.6850   -29.2000 C.3          1 PGD1782   0.0000
    18 N9           9.7730    59.2160   -29.2230 N.pl3        1 PGD1782   0.0000
    19 C8           8.7830    58.3920   -28.7500 C.2          1 PGD1782   0.0000
    20 N7           9.0920    57.0690   -28.8990 N.2          1 PGD1782   1.0000
    21 C5          10.3180    57.0520   -29.4380 C.2          1 PGD1782   0.0000
    22 C6          11.1330    55.9900   -29.7650 C.2          1 PGD1782   0.0000
    23 O6          10.8670    54.7830   -29.6100 O.2          1 PGD1782   0.0000
    24 N1          12.3450    56.3120   -30.3330 N.pl3        1 PGD1782   0.0000
    25 C2          12.7370    57.6060   -30.4810 C.2          1 PGD1782   0.0000
    26 N2          14.0070    57.8700   -31.0460 N.pl3        1 PGD1782   0.0000
    27 N3          11.9400    58.6580   -30.1270 N.2          1 PGD1782   0.0000
    28 C4          10.7110    58.3480   -29.6320 C.2          1 PGD1782   0.0000
    29 C10          8.3510    66.0910   -20.7620 C.3          1 PGD1782   0.0000
    30 C11          8.6980    67.0460   -19.5920 C.3          1 PGD1782   0.0000
    31 O11          8.1070    68.3160   -19.9750 O.3          1 PGD1782   0.0000
    32 C12          8.0310    66.5200   -18.3080 C.2          1 PGD1782   0.0000
    33 S12          7.9360    64.7730   -17.9380 S.3          1 PGD1782   0.0000
    34 C13          7.4890    67.3880   -17.4390 C.2          1 PGD1782   0.0000
    35 S13          6.6630    66.9310   -15.8870 S.3          1 PGD1782   0.0000
    36 C14          7.5990    68.8540   -17.6870 C.3          1 PGD1782   0.0000
    37 N15          6.2710    69.4550   -17.6620 N.pl3        1 PGD1782   0.0000
    38 C16          6.2690    70.9000   -17.9150 C.2          1 PGD1782   0.0000
    39 C17          5.3220    71.7450   -17.3860 C.2          1 PGD1782   0.0000
    40 O17          4.4200    71.3780   -16.6400 O.2          1 PGD1782   0.0000
    41 N18          5.4170    73.0840   -17.6630 N.pl3        1 PGD1782   0.0000
    42 C19          6.4040    73.5760   -18.4500 C.2          1 PGD1782   0.0000
    43 N19          6.4000    74.9540   -18.7240 N.pl3        1 PGD1782   0.0000
    44 N20          7.3490    72.7610   -19.0080 N.2          1 PGD1782   0.0000
    45 C21          7.2830    71.4310   -18.7290 C.2          1 PGD1782   0.0000
    46 N22          8.2740    70.5800   -19.2780 N.pl3        1 PGD1782   0.0000
    47 C23          8.4760    69.1710   -18.9140 C.3          1 PGD1782   0.0000
    48 H5'1         8.1405    62.1877   -26.2183 H            1 PGD1782   0.0000
    49 H5'2         9.6138    62.0522   -25.5272 H            1 PGD1782   0.0000
    50 H4'         10.4973    62.9605   -27.7265 H            1 PGD1782   0.0000
    51 H3'          7.8280    63.0125   -28.2493 H            1 PGD1782   0.0000
    52 H5          10.0281    63.2327   -30.0124 H            1 PGD1782   0.0000
    53 H2'          7.7551    60.7976   -28.7946 H            1 PGD1782   0.0000
    54 H7           8.8831    61.3686   -31.2353 H            1 PGD1782   0.0000
    55 H1'         10.4613    61.0643   -29.8542 H            1 PGD1782   0.0000
    56 H9           7.9316    58.7222   -28.3423 H            1 PGD1782   0.0000
    57 H10         12.9501    55.5789   -30.6434 H            1 PGD1782   0.0000
    58 H11         14.3153    58.8139   -31.1640 H            1 PGD1782   0.0000
    59 H12         14.5963    57.1127   -31.3273 H            1 PGD1782   0.0000
    60 H13          8.4461    65.1356   -20.4823 H            1 PGD1782   0.0000
    61 H14          7.4197    66.2516   -21.0888 H            1 PGD1782   0.0000
    62 H15          9.6878    67.1293   -19.4760 H            1 PGD1782   0.0000
    63 H16          7.4959    64.4637   -17.0950 H            1 PGD1782   0.0000
    64 H17          6.2847    67.6417   -15.2939 H            1 PGD1782   0.0000
    65 H18          8.0850    69.2299   -16.8980 H            1 PGD1782   0.0000
    66 H19          5.4377    68.9302   -17.4883 H            1 PGD1782   0.0000
    67 H20          4.7424    73.7122   -17.2753 H            1 PGD1782   0.0000
    68 H21          7.1135    75.3511   -19.3013 H            1 PGD1782   0.0000
    69 H22          5.6836    75.5377   -18.3418 H            1 PGD1782   0.0000
    70 H23          8.8843    70.9693   -19.9679 H            1 PGD1782   0.0000
    71 H24          9.4375    69.0208   -18.6840 H            1 PGD1782   0.0000
    72 H25          8.5242    56.2821   -28.6573 H            1 PGD1782   0.0000
@<TRIPOS>BOND
     1    1    2      ar
     2    1    3      ar
     3    1    4       1
     4    1    9       1
     5    4    6       1
     6    5    6       1
     7    5   29       1
     8    6    7      ar
     9    6    8      ar
    10    9   10       1
    11   10   11       1
    12   11   12       1
    13   11   13       1
    14   12   17       1
    15   13   14       1
    16   13   15       1
    17   15   16       1
    18   15   17       1
    19   17   18       1
    20   18   19       1
    21   18   28       1
    22   19   20       2
    23   20   21       1
    24   21   22       1
    25   21   28       2
    26   22   23       2
    27   22   24       1
    28   24   25       1
    29   25   26       1
    30   25   27       2
    31   27   28       1
    32   29   30       1
    33   30   31       1
    34   30   32       1
    35   31   47       1
    36   32   33       1
    37   32   34       2
    38   34   35       1
    39   34   36       1
    40   36   37       1
    41   36   47       1
    42   37   38       1
    43   38   39       1
    44   38   45       2
    45   39   40       2
    46   39   41       1
    47   41   42       1
    48   42   43       1
    49   42   44       2
    50   44   45       1
    51   45   46       1
    52   46   47       1
    53   47   71       1
    54   46   70       1
    55   10   48       1
    56   10   49       1
    57   11   50       1
    58   13   51       1
    59   14   52       1
    60   15   53       1
    61   16   54       1
    62   17   55       1
    63   19   56       1
    64   24   57       1
    65   26   58       1
    66   26   59       1
    67   29   60       1
    68   29   61       1
    69   30   62       1
    70   33   63       1
    71   35   64       1
    72   36   65       1
    73   37   66       1
    74   41   67       1
    75   43   68       1
    76   43   69       1
    77   20   72       1
@<TRIPOS>SUBSTRUCTURE
     1 PGD1782     1 GROUP             4 C     PGD     0 **** PGD C1782
