@<TRIPOS>MOLECULE
3u5y_SCG_1_ligand
   51    52     1     0     0
SMALL
NO_CHARGES


@<TRIPOS>ATOM
     1 O16         36.0300    40.4440    41.9520 O.2          1 SCG1001   0.0000
     2 C10         35.0210    40.9450    41.4220 C.2          1 SCG1001   0.0000
     3 C9          35.0980    41.5120    39.9900 C.3          1 SCG1001   0.0000
     4 C1          34.3160    42.8370    39.8680 C.3          1 SCG1001   0.0000
     5 C6          35.0130    43.8180    38.9070 C.3          1 SCG1001   0.0000
     6 C7          36.4780    43.3850    38.7010 C.2          1 SCG1001   0.0000
     7 C8          36.9030    42.1140    39.0920 C.2          1 SCG1001   0.0000
     8 C5          34.2670    43.9380    37.5570 C.3          1 SCG1001   0.0000
     9 O4          32.8970    44.2770    37.7310 O.3          1 SCG1001   0.0000
    10 C3          32.2500    43.3060    38.4140 C.2          1 SCG1001   0.0000
    11 C2          32.8590    42.5790    39.4280 C.2          1 SCG1001   0.0000
    12 C12         32.0050    41.5130    40.1220 C.2          1 SCG1001   0.0000
    13 O14         30.7160    41.3260    39.7080 O.3          1 SCG1001   0.0000
    14 C15         29.8240    42.1410    40.5260 C.3          1 SCG1001   0.0000
    15 O13         32.4660    40.8210    41.0320 O.2          1 SCG1001   0.0000
    16 O11         34.7210    45.0540    36.7750 O.3          1 SCG1001   0.0000
    17 C17         34.4530    44.8430    35.3760 C.3          1 SCG1001   0.0000
    18 O22         35.3870    43.7990    35.0540 O.3          1 SCG1001   0.0000
    19 C21         35.5060    43.6150    33.6600 C.3          1 SCG1001   0.0000
    20 C23         36.3740    42.3550    33.4490 C.3          1 SCG1001   0.0000
    21 O24         37.7250    42.5510    33.9040 O.3          1 SCG1001   0.0000
    22 C20         36.1350    44.8780    33.0580 C.3          1 SCG1001   0.0000
    23 O25         36.3690    44.6640    31.6630 O.3          1 SCG1001   0.0000
    24 C19         35.2730    46.1450    33.2720 C.3          1 SCG1001   0.0000
    25 O26         36.0920    47.3210    33.0930 O.3          1 SCG1001   0.0000
    26 C18         34.6430    46.2170    34.6780 C.3          1 SCG1001   0.0000
    27 O27         33.3970    46.9440    34.6160 O.3          1 SCG1001   0.0000
    28 H1          34.1582    40.9798    41.9263 H            1 SCG1001   0.0000
    29 H2          34.7096    40.8449    39.3543 H            1 SCG1001   0.0000
    30 H3          36.0562    41.6767    39.7561 H            1 SCG1001   0.0000
    31 H4          34.2912    43.2616    40.7730 H            1 SCG1001   0.0000
    32 H5          35.0166    44.7204    39.3378 H            1 SCG1001   0.0000
    33 H6          37.1289    44.0194    38.2841 H            1 SCG1001   0.0000
    34 H7          37.8552    41.8410    38.9548 H            1 SCG1001   0.0000
    35 H8          36.2553    41.4766    39.5093 H            1 SCG1001   0.0000
    36 H9          34.3523    43.0892    37.0352 H            1 SCG1001   0.0000
    37 H10         31.2988    43.1042    38.1805 H            1 SCG1001   0.0000
    38 H11         28.8798    42.0062    40.2253 H            1 SCG1001   0.0000
    39 H12         29.9104    41.8701    41.4847 H            1 SCG1001   0.0000
    40 H13         30.0704    43.1053    40.4286 H            1 SCG1001   0.0000
    41 H14         33.5156    44.5184    35.2494 H            1 SCG1001   0.0000
    42 H15         34.6002    43.4690    33.2623 H            1 SCG1001   0.0000
    43 H16         36.3903    42.1333    32.4740 H            1 SCG1001   0.0000
    44 H17         35.9690    41.5948    33.9570 H            1 SCG1001   0.0000
    45 H18         38.2812    42.9073    33.1532 H            1 SCG1001   0.0000
    46 H19         37.0190    45.0258    33.5016 H            1 SCG1001   0.0000
    47 H20         36.9899    43.8892    31.5442 H            1 SCG1001   0.0000
    48 H21         34.5413    46.1555    32.5904 H            1 SCG1001   0.0000
    49 H22         36.0669    47.6018    32.1336 H            1 SCG1001   0.0000
    50 H23         35.2651    46.7517    35.2499 H            1 SCG1001   0.0000
    51 H24         32.7262    46.4123    34.0990 H            1 SCG1001   0.0000
@<TRIPOS>BOND
     1    1    2       2
     2    2    3       1
     3    3    4       1
     4    4    5       1
     5    4   11       1
     6    5    6       1
     7    5    8       1
     8    6    7       2
     9    8    9       1
    10    8   16       1
    11    9   10       1
    12   10   11       2
    13   11   12       1
    14   12   13       1
    15   12   15       2
    16   13   14       1
    17   16   17       1
    18   17   18       1
    19   17   26       1
    20   18   19       1
    21   19   20       1
    22   19   22       1
    23   20   21       1
    24   22   23       1
    25   22   24       1
    26   24   25       1
    27   24   26       1
    28   26   27       1
    29    2   28       1
    30    3   29       1
    31    3   30       1
    32    4   31       1
    33    5   32       1
    34    6   33       1
    35    7   34       1
    36    7   35       1
    37    8   36       1
    38   10   37       1
    39   14   38       1
    40   14   39       1
    41   14   40       1
    42   17   41       1
    43   19   42       1
    44   20   43       1
    45   20   44       1
    46   21   45       1
    47   22   46       1
    48   23   47       1
    49   24   48       1
    50   25   49       1
    51   26   50       1
    52   27   51       1
@<TRIPOS>SUBSTRUCTURE
     1 SCG1001     1 GROUP             4 A     SCG     0 **** SCG A1001
