@<TRIPOS>MOLECULE
4mpp_TZD_1_ligand
   42    43     1     0     0
SMALL
NO_CHARGES


@<TRIPOS>ATOM
     1 N1'         91.3840    45.7140   159.3290 N.ar         1 TZD605   0.0000
     2 C2'         90.7090    44.5750   158.9380 C.ar         1 TZD605   0.0000
     3 C2A         89.1800    44.5610   158.6640 C.3          1 TZD605   0.0000
     4 N3'         91.3920    43.4030   158.7290 N.ar         1 TZD605   0.0000
     5 C4'         92.7170    43.3600   158.9140 C.ar         1 TZD605   0.0000
     6 N4'         93.3590    42.1610   158.6690 N.pl3        1 TZD605   0.0000
     7 C5'         93.4080    44.4740   159.3550 C.ar         1 TZD605   0.0000
     8 C6'         92.7270    45.6490   159.5300 C.ar         1 TZD605   0.0000
     9 C35         94.9470    44.4040   159.5480 C.3          1 TZD605   0.0000
    10 N3          95.4040    43.5480   160.6570 N.pl3        1 TZD605   0.0000
    11 C2          95.9540    42.3500   160.3630 C.2          1 TZD605   0.0000
    12 OC2         96.1090    41.8940   159.2280 O.2          1 TZD605   0.0000
    13 S1          96.4450    41.4920   161.8730 S.3          1 TZD605   0.0000
    14 C5          95.9370    42.9890   162.7800 C.2          1 TZD605   0.0000
    15 C4          95.4150    43.9830   161.9720 C.2          1 TZD605   0.0000
    16 C4A         94.9540    45.2830   162.6180 C.3          1 TZD605   0.0000
    17 C5A         96.1320    43.0150   164.2640 C.3          1 TZD605   0.0000
    18 C5B         95.4150    41.9060   165.0230 C.3          1 TZD605   0.0000
    19 O5G         95.6150    42.2420   166.4210 O.3          1 TZD605   0.0000
    20 P1          95.0740    41.2260   167.5050 P.3          1 TZD605   0.0000
    21 O11         96.0320    39.9650   167.4210 O.3          1 TZD605   0.0000
    22 O12         93.6990    40.7350   167.2670 O.co2        1 TZD605   0.0000
    23 O13         95.2430    41.8890   168.8370 O.co2        1 TZD605  -1.0000
    24 P2          97.6420    39.8260   167.5560 P.3          1 TZD605   0.0000
    25 O21         98.0660    40.6190   168.7420 O.co2        1 TZD605   0.0000
    26 O22         98.2970    40.2590   166.3140 O.co2        1 TZD605  -1.0000
    27 O23         97.8170    38.3430   167.7660 O.co2        1 TZD605  -1.0000
    28 H2A1        88.8981    43.6402   158.3946 H            1 TZD605   0.0000
    29 H2A2        88.6903    44.8303   159.4932 H            1 TZD605   0.0000
    30 H2A3        88.9674    45.2035   157.9278 H            1 TZD605   0.0000
    31 H4'1        94.3483    42.0885   158.7957 H            1 TZD605   0.0000
    32 H4'2        92.8343    41.3658   158.3650 H            1 TZD605   0.0000
    33 H6'         93.2242    46.4704   159.8094 H            1 TZD605   0.0000
    34 H7          95.2798    45.3318   159.7164 H            1 TZD605   0.0000
    35 H8          95.3489    44.0542   158.7018 H            1 TZD605   0.0000
    36 H4A1        95.1195    45.2426   163.6034 H            1 TZD605   0.0000
    37 H4A2        95.4631    46.0491   162.2256 H            1 TZD605   0.0000
    38 H4A3        93.9767    45.4109   162.4492 H            1 TZD605   0.0000
    39 H5A1        95.7970    43.8929   164.6063 H            1 TZD605   0.0000
    40 H5A2        97.1113    42.9364   164.4503 H            1 TZD605   0.0000
    41 H5B1        95.8167    41.0149   164.8117 H            1 TZD605   0.0000
    42 H5B2        94.4409    41.8945   164.7971 H            1 TZD605   0.0000
@<TRIPOS>BOND
     1    1    2      ar
     2    1    8      ar
     3    2    3       1
     4    2    4      ar
     5    4    5      ar
     6    5    6       1
     7    5    7      ar
     8    7    8      ar
     9    7    9       1
    10    9   10       1
    11   10   11       1
    12   10   15       1
    13   11   12       2
    14   11   13       1
    15   13   14       1
    16   14   15       2
    17   14   17       1
    18   15   16       1
    19   17   18       1
    20   18   19       1
    21   19   20       1
    22   20   21       1
    23   20   22      ar
    24   20   23      ar
    25   21   24       1
    26   24   25      ar
    27   24   26      ar
    28   24   27      ar
    29    3   28       1
    30    3   29       1
    31    3   30       1
    32    6   31       1
    33    6   32       1
    34    8   33       1
    35    9   34       1
    36    9   35       1
    37   16   36       1
    38   16   37       1
    39   16   38       1
    40   17   39       1
    41   17   40       1
    42   18   41       1
    43   18   42       1
@<TRIPOS>SUBSTRUCTURE
     1 TZD605      1 GROUP             4 A     TZD     0 **** TZD A 605
