@<TRIPOS>MOLECULE
3fi8_OPE_1_ligand
   15    14     1     0     0
SMALL
NO_CHARGES


@<TRIPOS>ATOM
     1 CA           7.0210     4.6080    10.4900 C.3          1 OPE603   0.0000
     2 CB           6.6680     4.9420    11.9410 C.3          1 OPE603   0.0000
     3 O1           8.2050     7.4210    10.0350 O.co2        1 OPE603   0.0000
     4 O2          10.5450     6.2740     9.7420 O.co2        1 OPE603  -1.0000
     5 O3           9.4280     6.4140    12.0670 O.co2        1 OPE603  -1.0000
     6 O4           8.4180     4.8290    10.2460 O.3          1 OPE603   0.0000
     7 N            6.3670     3.7100    12.6810 N.4          1 OPE603   1.0000
     8 P            9.0880     6.3010    10.4730 P.3          1 OPE603   0.0000
     9 HA1          6.4846     5.1901     9.8790 H            1 OPE603   0.0000
    10 HA2          6.8041     3.6483    10.3116 H            1 OPE603   0.0000
    11 HB1          5.8682     5.5420    11.9575 H            1 OPE603   0.0000
    12 HB2          7.4420     5.4063    12.3717 H            1 OPE603   0.0000
    13 H5           7.2073     3.3519    13.0881 H            1 OPE603   0.0000
    14 H6           5.7048     3.9085    13.4036 H            1 OPE603   0.0000
    15 H7           5.9839     3.0305    12.0553 H            1 OPE603   0.0000
@<TRIPOS>BOND
     1    1    2       1
     2    1    6       1
     3    2    7       1
     4    3    8      ar
     5    4    8      ar
     6    5    8      ar
     7    6    8       1
     8    1    9       1
     9    1   10       1
    10    2   11       1
    11    2   12       1
    12    7   14       1
    13    7   13       1
    14    7   15       1
@<TRIPOS>SUBSTRUCTURE
     1 OPE603      1 GROUP             4 A     OPE     0 **** OPE A 603
