@<TRIPOS>MOLECULE
2zif_SAM_2_ligand
   50    52     1     0     0
SMALL
NO_CHARGES


@<TRIPOS>ATOM
     1 N           47.3750    29.8490    46.0580 N.4          1 SAM298   1.0000
     2 CA          48.0630    30.7120    45.0910 C.3          1 SAM298   0.0000
     3 C           49.5030    30.3440    44.6960 C.2          1 SAM298   0.0000
     4 O           50.2570    31.2430    44.3090 O.co2        1 SAM298   0.0000
     5 OXT         49.8290    29.1540    44.7770 O.co2        1 SAM298  -1.0000
     6 CB          48.1040    32.1900    45.5610 C.3          1 SAM298   0.0000
     7 CG          46.6520    33.0920    45.0510 C.3          1 SAM298   0.0000
     8 SD          46.7180    34.7220    45.8990 S.3          1 SAM298   1.0000
     9 CE          45.8850    34.4310    47.4930 C.3          1 SAM298   0.0000
    10 C5'         45.6540    35.8100    44.9300 C.3          1 SAM298   0.0000
    11 C4'         46.2300    36.2220    43.5660 C.3          1 SAM298   0.0000
    12 O4'         45.3180    37.0320    42.8520 O.3          1 SAM298   0.0000
    13 C3'         47.5630    36.9970    43.6090 C.3          1 SAM298   0.0000
    14 O3'         48.6420    36.2600    43.0500 O.3          1 SAM298   0.0000
    15 C2'         47.2140    38.3490    42.9890 C.3          1 SAM298   0.0000
    16 O2'         48.2330    38.8160    42.1020 O.3          1 SAM298   0.0000
    17 C1'         46.0150    37.9970    42.1050 C.3          1 SAM298   0.0000
    18 N9          45.0430    39.0750    41.8510 N.pl3        1 SAM298   0.0000
    19 C8          44.5990    40.1100    42.6020 C.2          1 SAM298   0.0000
    20 N7          43.6800    40.8640    41.9840 N.2          1 SAM298   0.0000
    21 C5          43.4970    40.2850    40.7250 C.ar         1 SAM298   0.0000
    22 C6          42.7270    40.5050    39.5880 C.ar         1 SAM298   0.0000
    23 N6          41.8460    41.5380    39.5100 N.pl3        1 SAM298   0.0000
    24 N1          42.8270    39.6770    38.4910 N.ar         1 SAM298   0.0000
    25 C2          43.6880    38.6360    38.5170 C.ar         1 SAM298   0.0000
    26 N3          44.4680    38.3530    39.5790 N.ar         1 SAM298   0.0000
    27 C4          44.3570    39.1730    40.6560 C.ar         1 SAM298   0.0000
    28 H1          46.4538    30.2015    46.2230 H            1 SAM298   0.0000
    29 H2          47.3160    28.9200    45.6927 H            1 SAM298   0.0000
    30 HA          47.5205    30.6923    44.2512 H            1 SAM298   0.0000
    31 HB1         48.9121    32.6310    45.1704 H            1 SAM298   0.0000
    32 HB2         48.1629    32.2102    46.5591 H            1 SAM298   0.0000
    33 HG1         45.8262    32.5965    45.3203 H            1 SAM298   0.0000
    34 HG2         46.6559    33.2191    44.0591 H            1 SAM298   0.0000
    35 HE1         45.8767    35.2781    48.0243 H            1 SAM298   0.0000
    36 HE2         44.9452    34.1316    47.3282 H            1 SAM298   0.0000
    37 HE3         46.3759    33.7235    48.0014 H            1 SAM298   0.0000
    38 H5'1        45.4897    36.6403    45.4625 H            1 SAM298   0.0000
    39 H5'2        44.7866    35.3380    44.7723 H            1 SAM298   0.0000
    40 H4'         46.3790    35.3886    43.0337 H            1 SAM298   0.0000
    41 H3'         47.7812    37.1591    44.5713 H            1 SAM298   0.0000
    42 H15         48.4408    36.0481    42.0936 H            1 SAM298   0.0000
    43 H2'         46.9805    39.0301    43.6829 H            1 SAM298   0.0000
    44 H17         48.3568    38.1570    41.3601 H            1 SAM298   0.0000
    45 H1'         46.3277    37.6039    41.2403 H            1 SAM298   0.0000
    46 H19         44.9256    40.2941    43.5291 H            1 SAM298   0.0000
    47 H20         41.3052    41.6723    38.6797 H            1 SAM298   0.0000
    48 H21         41.7390    42.1633    40.2830 H            1 SAM298   0.0000
    49 H22         43.7493    38.0480    37.7105 H            1 SAM298   0.0000
    50 H23         47.8863    29.8374    46.9173 H            1 SAM298   0.0000
@<TRIPOS>BOND
     1    1    2       1
     2    2    3       1
     3    2    6       1
     4    3    4      ar
     5    3    5      ar
     6    6    7       1
     7    7    8       1
     8    8    9       1
     9    8   10       1
    10   10   11       1
    11   11   12       1
    12   11   13       1
    13   12   17       1
    14   13   14       1
    15   13   15       1
    16   15   16       1
    17   15   17       1
    18   17   18       1
    19   18   19       1
    20   18   27       1
    21   19   20       2
    22   20   21       1
    23   21   22      ar
    24   21   27      ar
    25   22   23       1
    26   22   24      ar
    27   24   25      ar
    28   25   26      ar
    29   26   27      ar
    30    1   28       1
    31    1   29       1
    32    2   30       1
    33    1   50       1
    34    6   31       1
    35    6   32       1
    36    7   33       1
    37    7   34       1
    38    9   35       1
    39    9   36       1
    40    9   37       1
    41   10   38       1
    42   10   39       1
    43   11   40       1
    44   13   41       1
    45   14   42       1
    46   15   43       1
    47   16   44       1
    48   17   45       1
    49   19   46       1
    50   23   47       1
    51   23   48       1
    52   25   49       1
@<TRIPOS>SUBSTRUCTURE
     1 SAM298      1 GROUP             4 B     SAM     0 **** SAM B 298
