@<TRIPOS>MOLECULE
2ylw_FAD_1_ligand
   84    89     1     0     0
SMALL
NO_CHARGES


@<TRIPOS>ATOM
     1 PA          35.8810   -26.6070    18.7990 P.3          1 FAD700   0.0000
     2 O1A         36.6380   -27.5600    17.9590 O.co2        1 FAD700   0.0000
     3 O2A         36.5600   -26.1470    20.0760 O.co2        1 FAD700  -1.0000
     4 O5B         34.5240   -27.2640    19.2980 O.3          1 FAD700   0.0000
     5 C5B         33.8700   -28.1100    18.3990 C.3          1 FAD700   0.0000
     6 C4B         33.2290   -29.2170    19.1740 C.3          1 FAD700   0.0000
     7 O4B         32.2080   -29.7680    18.3800 O.3          1 FAD700   0.0000
     8 C3B         34.2190   -30.3030    19.4490 C.3          1 FAD700   0.0000
     9 O3B         34.1950   -30.4820    20.8430 O.3          1 FAD700   0.0000
    10 C2B         33.6580   -31.5260    18.7530 C.3          1 FAD700   0.0000
    11 O2B         33.6540   -32.6360    19.6240 O.3          1 FAD700   0.0000
    12 C1B         32.2160   -31.1710    18.4850 C.3          1 FAD700   0.0000
    13 N9A         31.7130   -31.9210    17.3220 N.pl3        1 FAD700   0.0000
    14 C8A         32.2550   -32.0470    16.0650 C.2          1 FAD700   0.0000
    15 N7A         31.4390   -32.8980    15.3340 N.2          1 FAD700   0.0000
    16 C5A         30.4130   -33.3180    16.1190 C.ar         1 FAD700   0.0000
    17 C6A         29.3230   -34.1770    15.9330 C.ar         1 FAD700   0.0000
    18 N6A         28.9160   -34.5740    14.7400 N.pl3        1 FAD700   0.0000
    19 N1A         28.4530   -34.4190    16.9520 N.ar         1 FAD700   0.0000
    20 C2A         28.6570   -33.8210    18.1590 C.ar         1 FAD700   0.0000
    21 N3A         29.7250   -32.9730    18.3450 N.ar         1 FAD700   0.0000
    22 C4A         30.5850   -32.7060    17.3530 C.ar         1 FAD700   0.0000
    23 N1          42.4580   -20.4010    18.4360 N.2          1 FAD700   0.0000
    24 C2          43.0940   -19.1830    18.5120 C.2          1 FAD700   0.0000
    25 O2          42.5080   -18.1900    18.1020 O.2          1 FAD700   0.0000
    26 N3          44.3940   -19.0850    18.9760 N.pl3        1 FAD700   0.0000
    27 C4          45.0410   -20.2200    19.4220 C.2          1 FAD700   0.0000
    28 O4          46.2440   -20.1500    19.6400 O.2          1 FAD700   0.0000
    29 C4X         44.4380   -21.4560    19.2180 C.2          1 FAD700   0.0000
    30 N5          45.0090   -22.6110    19.6960 N.2          1 FAD700   0.0000
    31 C5X         44.4060   -23.8460    19.3630 C.ar         1 FAD700   0.0000
    32 C6          45.0890   -25.0220    19.7270 C.ar         1 FAD700   0.0000
    33 C7          44.8590   -26.2680    19.0960 C.ar         1 FAD700   0.0000
    34 C7M         45.6410   -27.5080    19.5570 C.3          1 FAD700   0.0000
    35 C8          43.8360   -26.2860    18.1190 C.ar         1 FAD700   0.0000
    36 C8M         43.5410   -27.5540    17.3750 C.3          1 FAD700   0.0000
    37 C9          43.1470   -25.1260    17.7740 C.ar         1 FAD700   0.0000
    38 C9A         43.4320   -23.9170    18.3620 C.ar         1 FAD700   0.0000
    39 N10         42.7700   -22.7720    18.0140 N.pl3        1 FAD700   0.0000
    40 C10         43.2160   -21.5530    18.5250 C.2          1 FAD700   0.0000
    41 C1'         41.6630   -22.8000    17.0260 C.3          1 FAD700   0.0000
    42 C2'         40.4200   -23.3160    17.7110 C.3          1 FAD700   0.0000
    43 O2'         39.6740   -24.0570    16.7760 O.3          1 FAD700   0.0000
    44 C3'         39.5840   -22.1720    18.2880 C.3          1 FAD700   0.0000
    45 O3'         40.3600   -21.3130    19.1110 O.3          1 FAD700   0.0000
    46 C4'         38.3690   -22.6280    19.0930 C.3          1 FAD700   0.0000
    47 O4'         38.7440   -23.3370    20.2580 O.3          1 FAD700   0.0000
    48 C5'         37.4400   -23.5180    18.3180 C.3          1 FAD700   0.0000
    49 O5'         36.2870   -23.4920    19.0850 O.3          1 FAD700   0.0000
    50 P           34.9070   -23.9940    18.4780 P.3          1 FAD700   0.0000
    51 O1P         33.8510   -24.0540    19.5310 O.co2        1 FAD700   0.0000
    52 O2P         34.6040   -23.0470    17.2930 O.co2        1 FAD700  -1.0000
    53 O3P         35.3230   -25.4360    17.8860 O.3          1 FAD700   0.0000
    54 H5B1        34.5303   -28.4896    17.7510 H            1 FAD700   0.0000
    55 H5B2        33.1707   -27.5976    17.9006 H            1 FAD700   0.0000
    56 H4B         32.8512   -28.8668    20.0311 H            1 FAD700   0.0000
    57 H3B         35.1329   -30.0695    19.1171 H            1 FAD700   0.0000
    58 H5          33.2736   -30.7444    21.1296 H            1 FAD700   0.0000
    59 H2B         34.1509   -31.7253    17.9060 H            1 FAD700   0.0000
    60 H7          33.0889   -32.4307    20.4231 H            1 FAD700   0.0000
    61 H1B         31.6743   -31.4299    19.2847 H            1 FAD700   0.0000
    62 H8A         33.0890   -31.6041    15.7361 H            1 FAD700   0.0000
    63 H6A1        28.1315   -35.1887    14.6583 H            1 FAD700   0.0000
    64 H6A2        29.3925   -34.2597    13.9190 H            1 FAD700   0.0000
    65 H2A         28.0267   -33.9993    18.9146 H            1 FAD700   0.0000
    66 H13         44.8603   -18.2005    18.9881 H            1 FAD700   0.0000
    67 H14         45.7651   -24.9751    20.4623 H            1 FAD700   0.0000
    68 H7M1        45.3620   -28.2993    19.0130 H            1 FAD700   0.0000
    69 H7M2        46.6207   -27.3485    19.4353 H            1 FAD700   0.0000
    70 H7M3        45.4492   -27.6830    20.5227 H            1 FAD700   0.0000
    71 H8M1        42.7963   -27.3947    16.7269 H            1 FAD700   0.0000
    72 H8M2        44.3581   -27.8469    16.8784 H            1 FAD700   0.0000
    73 H8M3        43.2719   -28.2661    18.0235 H            1 FAD700   0.0000
    74 H21         42.4272   -25.1739    17.0814 H            1 FAD700   0.0000
    75 H1'1        41.9045   -23.4038    16.2663 H            1 FAD700   0.0000
    76 H1'2        41.4979   -21.8769    16.6786 H            1 FAD700   0.0000
    77 H2'         40.6930   -23.9227    18.4576 H            1 FAD700   0.0000
    78 H25         39.0344   -23.4503    16.3039 H            1 FAD700   0.0000
    79 H3'         39.2479   -21.6282    17.5190 H            1 FAD700   0.0000
    80 H27         41.1034   -20.9171    18.5720 H            1 FAD700   0.0000
    81 H4'         37.8589   -21.8151    19.3741 H            1 FAD700   0.0000
    82 H29         38.0360   -24.0063    20.4833 H            1 FAD700   0.0000
    83 H5'1        37.8052   -24.4462    18.2465 H            1 FAD700   0.0000
    84 H5'2        37.2723   -23.1543    17.4017 H            1 FAD700   0.0000
@<TRIPOS>BOND
     1    1    2      ar
     2    1    3      ar
     3    1    4       1
     4    1   53       1
     5    4    5       1
     6    5    6       1
     7    6    7       1
     8    6    8       1
     9    7   12       1
    10    8    9       1
    11    8   10       1
    12   10   11       1
    13   10   12       1
    14   12   13       1
    15   13   14       1
    16   13   22       1
    17   14   15       2
    18   15   16       1
    19   16   17      ar
    20   16   22      ar
    21   17   18       1
    22   17   19      ar
    23   19   20      ar
    24   20   21      ar
    25   21   22      ar
    26   23   24       1
    27   23   40       2
    28   24   25       2
    29   24   26       1
    30   26   27       1
    31   27   28       2
    32   27   29       1
    33   29   30       2
    34   29   40       1
    35   30   31       1
    36   31   32      ar
    37   31   38      ar
    38   32   33      ar
    39   33   34       1
    40   33   35      ar
    41   35   36       1
    42   35   37      ar
    43   37   38      ar
    44   38   39       1
    45   39   40       1
    46   39   41       1
    47   41   42       1
    48   42   43       1
    49   42   44       1
    50   44   45       1
    51   44   46       1
    52   46   47       1
    53   46   48       1
    54   48   49       1
    55   49   50       1
    56   50   51      ar
    57   50   52      ar
    58   50   53       1
    59   48   84       1
    60    5   54       1
    61    5   55       1
    62    6   56       1
    63    8   57       1
    64    9   58       1
    65   10   59       1
    66   11   60       1
    67   12   61       1
    68   14   62       1
    69   18   63       1
    70   18   64       1
    71   20   65       1
    72   26   66       1
    73   32   67       1
    74   34   68       1
    75   34   69       1
    76   34   70       1
    77   36   71       1
    78   36   72       1
    79   36   73       1
    80   37   74       1
    81   41   75       1
    82   41   76       1
    83   42   77       1
    84   43   78       1
    85   44   79       1
    86   45   80       1
    87   46   81       1
    88   47   82       1
    89   48   83       1
@<TRIPOS>SUBSTRUCTURE
     1 FAD700      1 GROUP             4 A     FAD     0 **** FAD A 700
