@<TRIPOS>MOLECULE
4blc_NDP_4_ligand
   73    77     1     0     0
SMALL
NO_CHARGES


@<TRIPOS>ATOM
     1 PA          12.6460    55.5450    34.0230 P.3          1 NDP1202   0.0000
     2 O1A         12.5760    55.3900    32.5470 O.co2        1 NDP1202   0.0000
     3 O2A         13.4040    56.6910    34.5590 O.co2        1 NDP1202  -1.0000
     4 O5B         13.3070    54.2640    34.6930 O.3          1 NDP1202   0.0000
     5 C5B         12.8970    52.9820    34.2530 C.3          1 NDP1202   0.0000
     6 C4B         13.8870    52.0870    34.9240 C.3          1 NDP1202   0.0000
     7 O4B         13.3420    50.7740    34.8250 O.3          1 NDP1202   0.0000
     8 C3B         15.2460    52.0710    34.2630 C.3          1 NDP1202   0.0000
     9 O3B         16.0960    53.1510    34.6590 O.3          1 NDP1202   0.0000
    10 C2B         15.7290    50.7140    34.7450 C.3          1 NDP1202   0.0000
    11 O2B         16.2860    50.7580    36.0660 O.3          1 NDP1202   0.0000
    12 C1B         14.4720    49.9010    34.9120 C.3          1 NDP1202   0.0000
    13 N9A         14.2580    48.6010    34.2550 N.pl3        1 NDP1202   0.0000
    14 C8A         14.5330    48.1970    32.9980 C.2          1 NDP1202   0.0000
    15 N7A         13.9380    47.0260    32.7370 N.2          1 NDP1202   0.0000
    16 C5A         13.3020    46.7200    33.8610 C.ar         1 NDP1202   0.0000
    17 C6A         12.8140    45.4420    34.2070 C.ar         1 NDP1202   0.0000
    18 N6A         12.7230    44.4430    33.3280 N.pl3        1 NDP1202   0.0000
    19 N1A         12.5630    45.2100    35.5310 N.ar         1 NDP1202   0.0000
    20 C2A         12.7750    46.1370    36.4880 C.ar         1 NDP1202   0.0000
    21 N3A         13.2330    47.3580    36.1500 N.ar         1 NDP1202   0.0000
    22 C4A         13.5190    47.6690    34.8520 C.ar         1 NDP1202   0.0000
    23 O3          11.1330    55.4820    34.6270 O.3          1 NDP1202   0.0000
    24 PN          10.1690    56.0540    35.8200 P.3          1 NDP1202   0.0000
    25 O1N          9.8680    57.4890    35.5980 O.co2        1 NDP1202   0.0000
    26 O2N         10.7740    55.7050    37.1330 O.co2        1 NDP1202  -1.0000
    27 O5D          8.7710    55.2750    35.4490 O.3          1 NDP1202   0.0000
    28 C5D          8.0600    54.3200    36.2710 C.3          1 NDP1202   0.0000
    29 C4D          8.2070    52.8310    35.9110 C.3          1 NDP1202   0.0000
    30 O4D          9.6170    52.4280    35.8670 O.3          1 NDP1202   0.0000
    31 C3D          7.5370    52.0370    37.0320 C.3          1 NDP1202   0.0000
    32 O3D          6.2240    51.5270    36.7520 O.3          1 NDP1202   0.0000
    33 C2D          8.5510    50.9620    37.4050 C.3          1 NDP1202   0.0000
    34 O2D          8.0890    49.6600    37.0440 O.3          1 NDP1202   0.0000
    35 C1D          9.8740    51.2660    36.6960 C.3          1 NDP1202   0.0000
    36 N1N         11.0590    51.2890    37.6190 N.ar         1 NDP1202   1.0000
    37 C2N         11.5310    52.4800    38.2730 C.ar         1 NDP1202   0.0000
    38 C3N         12.6880    52.4680    39.0810 C.ar         1 NDP1202   0.0000
    39 C7N         12.9070    53.5770    40.1380 C.2          1 NDP1202   0.0000
    40 O7N         14.0270    53.8070    40.5970 O.2          1 NDP1202   0.0000
    41 N7N         11.8450    54.3060    40.4830 N.am         1 NDP1202   0.0000
    42 C4N         13.3970    51.2380    39.1760 C.ar         1 NDP1202   0.0000
    43 C5N         12.9250    50.0290    38.6090 C.ar         1 NDP1202   0.0000
    44 C6N         11.7410    50.0610    37.8420 C.ar         1 NDP1202   0.0000
    45 P2B         17.8810    50.7090    36.2600 P.3          1 NDP1202   0.0000
    46 O1X         18.4640    49.8060    35.0560 O.co2        1 NDP1202   0.0000
    47 O2X         18.1490    50.0320    37.5460 O.co2        1 NDP1202  -1.0000
    48 O3X         18.4060    52.0780    36.0710 O.co2        1 NDP1202  -1.0000
    49 H5B1        12.9545    52.9047    33.2577 H            1 NDP1202   0.0000
    50 H5B2        11.9641    52.7779    34.5498 H            1 NDP1202   0.0000
    51 H4B         13.9802    52.3444    35.8858 H            1 NDP1202   0.0000
    52 H3B         15.1426    52.0639    33.2684 H            1 NDP1202   0.0000
    53 H5          16.9259    52.7849    35.0800 H            1 NDP1202   0.0000
    54 H2B         16.3582    50.2922    34.0922 H            1 NDP1202   0.0000
    55 H1B         14.4914    49.6590    35.8821 H            1 NDP1202   0.0000
    56 H8A         15.1028    48.7024    32.3500 H            1 NDP1202   0.0000
    57 H6A1        12.3709    43.5529    33.6174 H            1 NDP1202   0.0000
    58 H6A2        13.0069    44.5841    32.3796 H            1 NDP1202   0.0000
    59 H2A         12.5925    45.9182    37.4465 H            1 NDP1202   0.0000
    60 H5D1         7.0872    54.5464    36.2212 H            1 NDP1202   0.0000
    61 H5D2         8.3813    54.4349    37.2110 H            1 NDP1202   0.0000
    62 H4D          7.7630    52.6393    35.0357 H            1 NDP1202   0.0000
    63 H3D          7.4539    52.6494    37.8181 H            1 NDP1202   0.0000
    64 H16          5.7601    52.1360    36.1086 H            1 NDP1202   0.0000
    65 H2D          8.7009    50.9887    38.3933 H            1 NDP1202   0.0000
    66 H18          7.4969    49.7272    36.2409 H            1 NDP1202   0.0000
    67 H1D         10.0301    50.5059    36.0652 H            1 NDP1202   0.0000
    68 H2N         11.0280    53.3358    38.1524 H            1 NDP1202   0.0000
    69 H7N1        11.9376    55.0341    41.1621 H            1 NDP1202   0.0000
    70 H7N2        10.9560    54.1245    40.0626 H            1 NDP1202   0.0000
    71 H4N         14.2688    51.2267    39.6657 H            1 NDP1202   0.0000
    72 H5N         13.4200    49.1715    38.7492 H            1 NDP1202   0.0000
    73 H6N         11.3788    49.2142    37.4524 H            1 NDP1202   0.0000
@<TRIPOS>BOND
     1    1    2      ar
     2    1    3      ar
     3    1    4       1
     4    1   23       1
     5    4    5       1
     6    5    6       1
     7    6    7       1
     8    6    8       1
     9    7   12       1
    10    8    9       1
    11    8   10       1
    12   10   11       1
    13   10   12       1
    14   11   45       1
    15   12   13       1
    16   13   14       1
    17   13   22       1
    18   14   15       2
    19   15   16       1
    20   16   17      ar
    21   16   22      ar
    22   17   18       1
    23   17   19      ar
    24   19   20      ar
    25   20   21      ar
    26   21   22      ar
    27   23   24       1
    28   24   25      ar
    29   24   26      ar
    30   24   27       1
    31   27   28       1
    32   28   29       1
    33   29   30       1
    34   29   31       1
    35   30   35       1
    36   31   32       1
    37   31   33       1
    38   33   34       1
    39   33   35       1
    40   35   36       1
    41   36   37      ar
    42   36   44      ar
    43   37   38      ar
    44   38   39       1
    45   38   42      ar
    46   39   40       2
    47   39   41      am
    48   42   43      ar
    49   43   44      ar
    50   45   46      ar
    51   45   47      ar
    52   45   48      ar
    53   43   72       1
    54    5   49       1
    55    5   50       1
    56    6   51       1
    57    8   52       1
    58    9   53       1
    59   10   54       1
    60   12   55       1
    61   14   56       1
    62   18   57       1
    63   18   58       1
    64   20   59       1
    65   44   73       1
    66   28   60       1
    67   28   61       1
    68   29   62       1
    69   31   63       1
    70   32   64       1
    71   33   65       1
    72   34   66       1
    73   35   67       1
    74   37   68       1
    75   41   69       1
    76   41   70       1
    77   42   71       1
@<TRIPOS>SUBSTRUCTURE
     1 NDP1202     1 GROUP             4 B     NDP     0 **** NDP B1202
