@<TRIPOS>MOLECULE
4d86_ADP_2_ligand
   39    41     1     0     0
SMALL
NO_CHARGES


@<TRIPOS>ATOM
     1 PB           7.0790    30.4230    10.1650 P.3          1 ADP1202   0.0000
     2 O1B          7.1650    28.9370    10.0050 O.co2        1 ADP1202   0.0000
     3 O2B          7.6470    31.1060     8.8150 O.co2        1 ADP1202  -1.0000
     4 O3B          8.0340    30.9920    11.3350 O.co2        1 ADP1202  -1.0000
     5 PA           4.2370    30.5190     9.9580 P.3          1 ADP1202   0.0000
     6 O1A          3.3130    31.6660    10.0330 O.co2        1 ADP1202   0.0000
     7 O2A          4.4150    29.8190     8.6540 O.co2        1 ADP1202  -1.0000
     8 O3A          5.6580    31.0250    10.5380 O.3          1 ADP1202   0.0000
     9 O5'          3.6820    29.4580    11.0390 O.3          1 ADP1202   0.0000
    10 C5'          4.3530    29.2360    12.2860 C.3          1 ADP1202   0.0000
    11 C4'          3.5080    28.4170    13.2480 C.3          1 ADP1202   0.0000
    12 O4'          2.4380    29.2440    13.8310 O.3          1 ADP1202   0.0000
    13 C3'          2.8080    27.2490    12.5400 C.3          1 ADP1202   0.0000
    14 O3'          3.0520    26.0460    13.2890 O.3          1 ADP1202   0.0000
    15 C2'          1.3260    27.6150    12.6120 C.3          1 ADP1202   0.0000
    16 O2'          0.5800    26.4240    12.7570 O.3          1 ADP1202   0.0000
    17 C1'          1.2700    28.3740    13.9260 C.3          1 ADP1202   0.0000
    18 N9           0.1880    29.3540    13.9590 N.pl3        1 ADP1202   0.0000
    19 C8          -0.4870    29.8230    12.9010 C.2          1 ADP1202   0.0000
    20 N7          -1.3390    30.7590    13.3150 N.2          1 ADP1202   0.0000
    21 C5          -1.2100    30.8800    14.6410 C.ar         1 ADP1202   0.0000
    22 C6          -1.8260    31.6750    15.5990 C.ar         1 ADP1202   0.0000
    23 N6          -2.7990    32.5280    15.2680 N.pl3        1 ADP1202   0.0000
    24 N1          -1.4390    31.5530    16.8730 N.ar         1 ADP1202   0.0000
    25 C2          -0.4780    30.7060    17.2360 C.ar         1 ADP1202   0.0000
    26 N3           0.1310    29.9280    16.3430 N.ar         1 ADP1202   0.0000
    27 C4          -0.2280    29.9900    15.0490 C.ar         1 ADP1202   0.0000
    28 H5'1         4.5550    30.1207    12.7062 H            1 ADP1202   0.0000
    29 H5'2         5.2077    28.7475    12.1104 H            1 ADP1202   0.0000
    30 H4'          4.0890    28.0613    13.9801 H            1 ADP1202   0.0000
    31 H3'          3.1162    27.1584    11.5930 H            1 ADP1202   0.0000
    32 H5           4.0363    25.8757    13.3347 H            1 ADP1202   0.0000
    33 H2'          1.0259    28.1667    11.8338 H            1 ADP1202   0.0000
    34 H7           0.8584    25.9564    13.5960 H            1 ADP1202   0.0000
    35 H1'          1.2866    27.7769    14.7280 H            1 ADP1202   0.0000
    36 H9          -0.3702    29.5198    11.9553 H            1 ADP1202   0.0000
    37 H10         -3.2304    33.0920    15.9721 H            1 ADP1202   0.0000
    38 H11         -3.0961    32.6026    14.3161 H            1 ADP1202   0.0000
    39 H12         -0.2084    30.6530    18.1975 H            1 ADP1202   0.0000
@<TRIPOS>BOND
     1    1    2      ar
     2    1    3      ar
     3    1    4      ar
     4    1    8       1
     5    5    6      ar
     6    5    7      ar
     7    5    8       1
     8    5    9       1
     9    9   10       1
    10   10   11       1
    11   11   12       1
    12   11   13       1
    13   12   17       1
    14   13   14       1
    15   13   15       1
    16   15   16       1
    17   15   17       1
    18   17   18       1
    19   18   19       1
    20   18   27       1
    21   19   20       2
    22   20   21       1
    23   21   22      ar
    24   21   27      ar
    25   22   23       1
    26   22   24      ar
    27   24   25      ar
    28   25   26      ar
    29   26   27      ar
    30   25   39       1
    31   23   38       1
    32   23   37       1
    33   10   28       1
    34   10   29       1
    35   11   30       1
    36   13   31       1
    37   14   32       1
    38   15   33       1
    39   16   34       1
    40   17   35       1
    41   19   36       1
@<TRIPOS>SUBSTRUCTURE
     1 ADP1202     1 GROUP             4 A     ADP     0 **** ADP A1202
