@<TRIPOS>MOLECULE
./coach420/1e3v/ligand.pdb
 28 31 0 0 0
SMALL
GASTEIGER

@<TRIPOS>ATOM
      1  C1         4.8530   -3.5000   84.8790 C.3   801  DXC801      0.1520
      2  C2         3.8190   -4.1940   83.9850 C.3   801  DXC801      0.0329
      3  C3         2.4560   -4.3450   84.6990 C.3   801  DXC801      0.0025
      4  C4         2.5860   -5.0840   86.0690 C.3   801  DXC801      0.0002
      5  C5         3.6330   -4.3160   86.9230 C.3   801  DXC801      0.0026
      6  C6         5.0020   -4.2480   86.2280 C.3   801  DXC801      0.0329
      7  C7         1.4380   -5.0580   83.7720 C.3   801  DXC801      0.0001
      8  C8         1.7720   -6.5490   83.5890 C.3   801  DXC801      0.0000
      9  C9         1.9340   -7.2910   84.9280 C.3   801  DXC801      0.0002
     10  C10        2.9990   -6.5880   85.8200 C.3   801  DXC801      0.0025
     11  C11        2.3590   -8.7630   84.7180 C.3   801  DXC801      0.0024
     12  C12        2.5170   -9.5400   86.0420 C.3   801  DXC801      0.0282
     13  C13        3.5660   -8.8710   86.9500 C.3   801  DXC801      0.1519
     14  C14        3.1550   -7.3830   87.1570 C.3   801  DXC801      0.0329
     15  C15        1.5170   -9.6960   83.8400 C.3   801  DXC801      0.0001
     16  C16        1.8870  -11.1160   84.3090 C.3   801  DXC801      0.0001
     17  C17        2.9060  -10.9290   85.4540 C.3   801  DXC801      0.0024
     18  C18        1.2480   -5.0530   86.8530 C.3   801  DXC801      0.0000
     19  C19        2.9680  -12.1840   86.3940 C.3   801  DXC801      0.0006
     20  O1         4.8440   -8.9610   86.3340 O.3   801  DXC801     -0.2232
     21  O2         6.0610   -3.3990   84.1510 O.3   801  DXC801     -0.2232
     22  C20        1.1760   -9.6220   86.8150 C.3   801  DXC801      0.0025
     23  C21        3.3500  -13.4460   85.5780 C.3   801  DXC801      0.0118
     24  C22        4.7310  -13.4140   84.9230 C.3   801  DXC801      0.1141
     25  C23        4.6260  -14.0460   83.5410 C.2   801  DXC801      0.3649
     26  O3         4.7740  -13.4660   82.5160 O.co2 801  DXC801     -0.2457
     27  O4         4.3460  -15.3480   83.6050 O.co2 801  DXC801     -0.2457
     28  C24        3.9780  -12.0070   87.5370 C.3   801  DXC801      0.0000
@<TRIPOS>BOND
     1     1     2    1
     2     1    21    1
     3     1     6    1
     4     2     3    1
     5     3     7    1
     6     3     4    1
     7     4    10    1
     8     4    18    1
     9     4     5    1
    10     5     6    1
    11     7     8    1
    12     8     9    1
    13     9    11    1
    14     9    10    1
    15    10    14    1
    16    11    15    1
    17    11    12    1
    18    12    17    1
    19    12    22    1
    20    12    13    1
    21    13    20    1
    22    13    14    1
    23    15    16    1
    24    16    17    1
    25    17    19    1
    26    19    23    1
    27    19    28    1
    28    23    24    1
    29    24    25    1
    30    25    26   ar
    31    25    27   ar
