@<TRIPOS>MOLECULE
3zuy_TCH_1_ligand
   79    82     1     0     0
SMALL
NO_CHARGES


@<TRIPOS>ATOM
     1 C1          19.8860    77.6420    76.8660 C.3          1 TCH1312   0.0000
     2 C2          18.9850    76.4270    76.6340 C.3          1 TCH1312   0.0000
     3 C3          18.9110    75.6300    77.9490 C.3          1 TCH1312   0.0000
     4 O3          17.9440    74.5730    77.8600 O.3          1 TCH1312   0.0000
     5 C4          20.3010    75.0910    78.3000 C.3          1 TCH1312   0.0000
     6 C5          21.2870    76.2610    78.4490 C.3          1 TCH1312   0.0000
     7 C6          22.6820    75.7370    78.8060 C.3          1 TCH1312   0.0000
     8 C7          23.4420    75.1550    77.6020 C.3          1 TCH1312   0.0000
     9 O7          23.0160    73.8190    77.3510 O.3          1 TCH1312   0.0000
    10 C8          23.4370    76.0800    76.3630 C.3          1 TCH1312   0.0000
    11 C9          22.0120    76.5670    75.9990 C.3          1 TCH1312   0.0000
    12 C10         21.3210    77.2210    77.2310 C.3          1 TCH1312   0.0000
    13 C11         22.0330    77.5040    74.7770 C.3          1 TCH1312   0.0000
    14 C12         22.7550    76.8870    73.5540 C.3          1 TCH1312   0.0000
    15 O12         22.0090    75.7740    73.0500 O.3          1 TCH1312   0.0000
    16 C13         24.1760    76.4250    73.9030 C.3          1 TCH1312   0.0000
    17 C14         24.0880    75.4270    75.1260 C.3          1 TCH1312   0.0000
    18 C15         25.5210    74.8730    75.2350 C.3          1 TCH1312   0.0000
    19 C16         25.8890    74.6470    73.7400 C.3          1 TCH1312   0.0000
    20 C17         24.9410    75.5460    72.8800 C.3          1 TCH1312   0.0000
    21 C18         25.0100    77.6600    74.3130 C.3          1 TCH1312   0.0000
    22 C19         22.0890    78.4860    77.6590 C.3          1 TCH1312   0.0000
    23 O1S         32.2730    75.8310    65.1730 O.co2        1 TCH1312   0.0000
    24 C20         25.7150    76.3050    71.7720 C.3          1 TCH1312   0.0000
    25 C21         24.7810    77.1760    70.9360 C.3          1 TCH1312   0.0000
    26 C22         26.4460    75.3480    70.8220 C.3          1 TCH1312   0.0000
    27 C23         27.5480    76.1080    70.0850 C.3          1 TCH1312   0.0000
    28 C24         28.0930    75.2880    68.9440 C.2          1 TCH1312   0.0000
    29 N24         29.3960    74.8790    68.9840 N.am         1 TCH1312   0.0000
    30 O24         27.3510    75.0180    68.0140 O.2          1 TCH1312   0.0000
    31 C25         30.0600    74.0900    67.9330 C.3          1 TCH1312   0.0000
    32 C26         31.2690    74.8740    67.4110 C.3          1 TCH1312   0.0000
    33 S26         31.5630    74.5670    65.6420 S.o2         1 TCH1312   0.0000
    34 O2S         32.5690    73.5810    65.4360 O.co2        1 TCH1312   0.0000
    35 O3S         30.3610    74.6240    64.8840 O.co2        1 TCH1312  -1.0000
    36 H1          19.5080    78.1885    77.6133 H            1 TCH1312   0.0000
    37 H2          19.9114    78.1915    76.0309 H            1 TCH1312   0.0000
    38 H3          19.3691    75.8531    75.9107 H            1 TCH1312   0.0000
    39 H4          18.0695    76.7294    76.3687 H            1 TCH1312   0.0000
    40 H5          18.6253    76.2539    78.6764 H            1 TCH1312   0.0000
    41 H6          17.8830    74.2559    76.9136 H            1 TCH1312   0.0000
    42 H7          20.6152    74.4820    77.5717 H            1 TCH1312   0.0000
    43 H8          20.2536    74.5844    79.1609 H            1 TCH1312   0.0000
    44 H9          20.9750    76.8009    79.2308 H            1 TCH1312   0.0000
    45 H10         22.5843    75.0199    79.4960 H            1 TCH1312   0.0000
    46 H11         23.2173    76.4924    79.1838 H            1 TCH1312   0.0000
    47 H12         24.3976    75.0877    77.8888 H            1 TCH1312   0.0000
    48 H13         23.7711    73.2974    76.9538 H            1 TCH1312   0.0000
    49 H14         23.9786    76.8886    76.5927 H            1 TCH1312   0.0000
    50 H15         21.4757    75.7611    75.7484 H            1 TCH1312   0.0000
    51 H16         22.5030    78.3492    75.0315 H            1 TCH1312   0.0000
    52 H17         21.0896    77.7120    74.5186 H            1 TCH1312   0.0000
    53 H18         22.8139    77.5810    72.8365 H            1 TCH1312   0.0000
    54 H19         22.1593    75.6906    72.0649 H            1 TCH1312   0.0000
    55 H20         23.4984    74.6690    74.8472 H            1 TCH1312   0.0000
    56 H21         25.5418    74.0154    75.7488 H            1 TCH1312   0.0000
    57 H22         26.1354    75.5343    75.6653 H            1 TCH1312   0.0000
    58 H23         25.7593    73.6854    73.4983 H            1 TCH1312   0.0000
    59 H24         26.8418    74.9053    73.5803 H            1 TCH1312   0.0000
    60 H25         24.2756    74.9482    72.4330 H            1 TCH1312   0.0000
    61 H26         25.9398    77.3728    74.5434 H            1 TCH1312   0.0000
    62 H27         25.0403    78.3090    73.5528 H            1 TCH1312   0.0000
    63 H28         24.5895    78.0972    75.1080 H            1 TCH1312   0.0000
    64 H29         23.0273    78.2400    77.9022 H            1 TCH1312   0.0000
    65 H30         22.1013    79.1403    76.9029 H            1 TCH1312   0.0000
    66 H31         21.6370    78.8988    78.4497 H            1 TCH1312   0.0000
    67 H32         26.3930    76.8966    72.2084 H            1 TCH1312   0.0000
    68 H33         25.3092    77.6510    70.2321 H            1 TCH1312   0.0000
    69 H34         24.0884    76.6003    70.5014 H            1 TCH1312   0.0000
    70 H35         24.3335    77.8473    71.5268 H            1 TCH1312   0.0000
    71 H36         25.7967    74.9756    70.1589 H            1 TCH1312   0.0000
    72 H37         26.8509    74.6002    71.3482 H            1 TCH1312   0.0000
    73 H38         28.2889    76.3130    70.7246 H            1 TCH1312   0.0000
    74 H39         27.1727    76.9621    69.7249 H            1 TCH1312   0.0000
    75 H40         29.9379    75.1339    69.7849 H            1 TCH1312   0.0000
    76 H41         29.4193    73.9231    67.1835 H            1 TCH1312   0.0000
    77 H42         30.3649    73.2161    68.3117 H            1 TCH1312   0.0000
    78 H43         32.0804    74.5982    67.9264 H            1 TCH1312   0.0000
    79 H44         31.1041    75.8509    67.5467 H            1 TCH1312   0.0000
@<TRIPOS>BOND
     1    1    2       1
     2    1   12       1
     3    2    3       1
     4    3    4       1
     5    3    5       1
     6    5    6       1
     7    6    7       1
     8    6   12       1
     9    7    8       1
    10    8    9       1
    11    8   10       1
    12   10   11       1
    13   10   17       1
    14   11   12       1
    15   11   13       1
    16   12   22       1
    17   13   14       1
    18   14   15       1
    19   14   16       1
    20   16   17       1
    21   16   20       1
    22   16   21       1
    23   17   18       1
    24   18   19       1
    25   19   20       1
    26   20   24       1
    27   23   33      ar
    28   24   25       1
    29   24   26       1
    30   26   27       1
    31   27   28       1
    32   28   29      am
    33   28   30       2
    34   29   31       1
    35   31   32       1
    36   32   33       1
    37   33   34      ar
    38   33   35      ar
    39    1   36       1
    40    1   37       1
    41    2   38       1
    42    2   39       1
    43    3   40       1
    44    4   41       1
    45    5   42       1
    46    5   43       1
    47    6   44       1
    48    7   45       1
    49    7   46       1
    50    8   47       1
    51    9   48       1
    52   10   49       1
    53   11   50       1
    54   13   51       1
    55   13   52       1
    56   14   53       1
    57   15   54       1
    58   17   55       1
    59   18   56       1
    60   18   57       1
    61   19   58       1
    62   19   59       1
    63   20   60       1
    64   21   61       1
    65   21   62       1
    66   21   63       1
    67   22   64       1
    68   22   65       1
    69   22   66       1
    70   32   79       1
    71   24   67       1
    72   25   68       1
    73   25   69       1
    74   25   70       1
    75   26   71       1
    76   26   72       1
    77   27   73       1
    78   27   74       1
    79   29   75       1
    80   31   76       1
    81   31   77       1
    82   32   78       1
@<TRIPOS>SUBSTRUCTURE
     1 TCH1312     1 GROUP             4 A     TCH     0 **** TCH A1312
