@<TRIPOS>MOLECULE
4tuv_CPZ_1_ligand
   19    20     1     0     0
SMALL
NO_CHARGES


@<TRIPOS>ATOM
     1 C11        -15.7070   -59.1730   -11.6130 C.ar         1 CPZ402   0.0000
     2 C10        -15.4020   -59.4200   -12.9680 C.ar         1 CPZ402   0.0000
     3 C9         -14.6700   -60.5470   -13.2860 C.ar         1 CPZ402   0.0000
     4 C8         -14.2150   -61.4330   -12.3040 C.ar         1 CPZ402   0.0000
     5 C7         -14.5260   -61.1820   -10.9600 C.ar         1 CPZ402   0.0000
     6 C6         -15.2690   -60.0580   -10.6320 C.ar         1 CPZ402   0.0000
     7 C4         -15.5910   -59.7900    -9.2320 C.2          1 CPZ402   0.0000
     8 C2         -16.1810   -58.6930    -8.6080 C.2          1 CPZ402   0.0000
     9 N1         -16.2990   -58.8890    -7.2170 N.2          1 CPZ402   0.0000
    10 C5         -15.7550   -60.1270    -7.0200 C.2          1 CPZ402   0.0000
    11 N3         -15.3230   -60.6930    -8.2030 N.pl3        1 CPZ402   0.0000
    12 CL         -14.2750   -60.8550   -14.9860 Cl           1 CPZ402   0.0000
    13 H1         -16.2366   -58.3640   -11.3579 H            1 CPZ402   0.0000
    14 H2         -15.7094   -58.7922   -13.6832 H            1 CPZ402   0.0000
    15 H3         -13.6747   -62.2354   -12.5573 H            1 CPZ402   0.0000
    16 H4         -14.2149   -61.8077   -10.2447 H            1 CPZ402   0.0000
    17 H5         -16.4832   -57.8690    -9.0873 H            1 CPZ402   0.0000
    18 H6         -15.6789   -60.5697    -6.1266 H            1 CPZ402   0.0000
    19 H7         -14.8942   -61.5907    -8.3042 H            1 CPZ402   0.0000
@<TRIPOS>BOND
     1    1    2      ar
     2    1    6      ar
     3    2    3      ar
     4    3    4      ar
     5    3   12       1
     6    4    5      ar
     7    5    6      ar
     8    6    7       1
     9    7    8       2
    10    7   11       1
    11    8    9       1
    12    9   10       2
    13   10   11       1
    14    1   13       1
    15    2   14       1
    16    4   15       1
    17    5   16       1
    18    8   17       1
    19   10   18       1
    20   11   19       1
@<TRIPOS>SUBSTRUCTURE
     1 CPZ402      1 GROUP             4 A     CPZ     0 **** CPZ A 402
