@<TRIPOS>MOLECULE
4hhd_FMN_1_ligand
   50    52     1     0     0
SMALL
NO_CHARGES


@<TRIPOS>ATOM
     1 N1          11.9320    -8.2190    14.2680 N.2          1 FMN701   0.0000
     2 C2          11.9910    -8.4720    15.6060 C.2          1 FMN701   0.0000
     3 O2          11.2770    -9.4780    16.1850 O.2          1 FMN701   0.0000
     4 N3          12.7740    -7.7270    16.4100 N.pl3        1 FMN701   0.0000
     5 C4          13.5050    -6.7230    15.8970 C.2          1 FMN701   0.0000
     6 O4          14.2940    -5.9800    16.7070 O.2          1 FMN701   0.0000
     7 C4A         13.4660    -6.4550    14.5400 C.2          1 FMN701   0.0000
     8 N5          14.2040    -5.4420    14.0620 N.2          1 FMN701   0.0000
     9 C5A         14.1880    -5.1340    12.7560 C.ar         1 FMN701   0.0000
    10 C6          14.9750    -4.0810    12.3140 C.ar         1 FMN701   0.0000
    11 C7          14.9930    -3.7110    10.9760 C.ar         1 FMN701   0.0000
    12 C7M         15.8540    -2.5600    10.5100 C.3          1 FMN701   0.0000
    13 C8          14.2140    -4.4220    10.0800 C.ar         1 FMN701   0.0000
    14 C8M         14.2240    -4.0480     8.6170 C.3          1 FMN701   0.0000
    15 C9          13.4240    -5.4850    10.5260 C.ar         1 FMN701   0.0000
    16 C9A         13.3960    -5.8540    11.8730 C.ar         1 FMN701   0.0000
    17 N10         12.6230    -6.9440    12.3840 N.pl3        1 FMN701   0.0000
    18 C10         12.6590    -7.2180    13.7090 C.2          1 FMN701   0.0000
    19 C1'         11.7290    -7.7260    11.5130 C.3          1 FMN701   0.0000
    20 C2'         12.3460    -8.9050    10.7690 C.3          1 FMN701   0.0000
    21 O2'         13.6110    -8.5440    10.2170 O.3          1 FMN701   0.0000
    22 C3'         11.4040    -9.3840     9.6560 C.3          1 FMN701   0.0000
    23 O3'         11.0160    -8.2680     8.8270 O.3          1 FMN701   0.0000
    24 C4'         10.1700   -10.1080    10.2230 C.3          1 FMN701   0.0000
    25 O4'         10.5490   -11.4260    10.6190 O.3          1 FMN701   0.0000
    26 C5'          9.0050   -10.2180     9.2380 C.3          1 FMN701   0.0000
    27 O5'          9.4170   -10.8540     8.0280 O.3          1 FMN701   0.0000
    28 P            9.1640   -12.4190     7.7660 P.3          1 FMN701   0.0000
    29 O1P         10.2910   -12.7580     6.8240 O.co2        1 FMN701   0.0000
    30 O2P          9.2870   -13.1330     9.0960 O.co2        1 FMN701  -1.0000
    31 O3P          7.7900   -12.4680     7.1490 O.co2        1 FMN701  -1.0000
    32 H1          12.8113    -7.9214    17.3902 H            1 FMN701   0.0000
    33 H2          15.5391    -3.5798    12.9702 H            1 FMN701   0.0000
    34 H7M1        15.7416    -2.4376     9.5239 H            1 FMN701   0.0000
    35 H7M2        15.5773    -1.7237    10.9834 H            1 FMN701   0.0000
    36 H7M3        16.8129    -2.7570    10.7143 H            1 FMN701   0.0000
    37 H8M1        13.6113    -4.6569     8.1131 H            1 FMN701   0.0000
    38 H8M2        13.9147    -3.1028     8.5125 H            1 FMN701   0.0000
    39 H8M3        15.1526    -4.1367     8.2566 H            1 FMN701   0.0000
    40 H9          12.8675    -5.9917     9.8676 H            1 FMN701   0.0000
    41 H1'1        11.3519    -7.1015    10.8290 H            1 FMN701   0.0000
    42 H1'2        10.9887    -8.0827    12.0828 H            1 FMN701   0.0000
    43 H2'         12.4825    -9.6549    11.4164 H            1 FMN701   0.0000
    44 H13         14.2002    -9.3510    10.1781 H            1 FMN701   0.0000
    45 H3'         11.9066   -10.0327     9.0845 H            1 FMN701   0.0000
    46 H15         10.4027    -8.5869     8.1044 H            1 FMN701   0.0000
    47 H4'          9.8553    -9.6119    11.0322 H            1 FMN701   0.0000
    48 H17         10.0143   -12.0956    10.1036 H            1 FMN701   0.0000
    49 H5'1         8.6674    -9.3007     9.0269 H            1 FMN701   0.0000
    50 H5'2         8.2723   -10.7547     9.6566 H            1 FMN701   0.0000
@<TRIPOS>BOND
     1    1    2       1
     2    1   18       2
     3    2    3       2
     4    2    4       1
     5    4    5       1
     6    5    6       2
     7    5    7       1
     8    7    8       2
     9    7   18       1
    10    8    9       1
    11    9   10      ar
    12    9   16      ar
    13   10   11      ar
    14   11   12       1
    15   11   13      ar
    16   13   14       1
    17   13   15      ar
    18   15   16      ar
    19   16   17       1
    20   17   18       1
    21   17   19       1
    22   19   20       1
    23   20   21       1
    24   20   22       1
    25   22   23       1
    26   22   24       1
    27   24   25       1
    28   24   26       1
    29   26   27       1
    30   27   28       1
    31   28   29      ar
    32   28   30      ar
    33   28   31      ar
    34    4   32       1
    35   10   33       1
    36   12   34       1
    37   12   35       1
    38   12   36       1
    39   14   37       1
    40   14   38       1
    41   14   39       1
    42   15   40       1
    43   19   41       1
    44   19   42       1
    45   20   43       1
    46   21   44       1
    47   22   45       1
    48   23   46       1
    49   24   47       1
    50   25   48       1
    51   26   49       1
    52   26   50       1
@<TRIPOS>SUBSTRUCTURE
     1 FMN701      1 GROUP             4 A     FMN     0 **** FMN A 701
