@<TRIPOS>MOLECULE
3ggf_GVD_1_ligand
   48    52     1     0     0
SMALL
NO_CHARGES


@<TRIPOS>ATOM
     1 CAL         88.3090   -11.0980    93.4520 C.3          1 GVD305   0.0000
     2 CAM         87.9880   -10.2460    92.2350 C.3          1 GVD305   0.0000
     3 CBB         88.8270   -11.5120    92.0830 C.3          1 GVD305   0.0000
     4 CAX         88.1280   -12.7620    91.4810 C.2          1 GVD305   0.0000
     5 CAK         86.8310   -13.0810    91.5020 C.2          1 GVD305   0.0000
     6 NAS         88.7940   -13.6910    90.8300 N.pl3        1 GVD305   0.0000
     7 NAN         87.9980   -14.5550    90.4360 N.2          1 GVD305   0.0000
     8 CAV         86.7730   -14.2510    90.8360 C.2          1 GVD305   0.0000
     9 NAR         85.7140   -15.0620    90.5270 N.pl3        1 GVD305   0.0000
    10 C6          84.4720   -15.0650    91.1080 C.ar         1 GVD305   0.0000
    11 N1          84.1550   -14.2950    92.1590 N.ar         1 GVD305   0.0000
    12 C5          83.4650   -15.9160    90.6290 C.ar         1 GVD305   0.0000
    13 CAJ         83.7050   -16.7710    89.5500 C.ar         1 GVD305   0.0000
    14 CAD         82.6920   -17.6050    89.0640 C.ar         1 GVD305   0.0000
    15 CAC         81.4250   -17.6190    89.6580 C.ar         1 GVD305   0.0000
    16 CAI         81.1920   -16.7940    90.7550 C.ar         1 GVD305   0.0000
    17 C4          82.2070   -15.9320    91.2310 C.ar         1 GVD305   0.0000
    18 N3          81.9560   -15.1440    92.2810 N.ar         1 GVD305   0.0000
    19 C2          82.9240   -14.3280    92.7210 C.ar         1 GVD305   0.0000
    20 NAQ         82.6250   -13.5720    93.7730 N.pl3        1 GVD305   0.0000
    21 CAU         83.3960   -12.6260    94.2700 C.ar         1 GVD305   0.0000
    22 CAG         83.6740   -12.6590    95.6170 C.ar         1 GVD305   0.0000
    23 CAE         84.4850   -11.6630    96.1720 C.ar         1 GVD305   0.0000
    24 CAB         86.1880    -8.3960    95.2380 C.1          1 GVD305   0.0000
    25 NAA         86.4560    -7.4960    94.5950 N.1          1 GVD305   0.0000
    26 CAF         84.6670   -10.5660    94.0500 C.ar         1 GVD305   0.0000
    27 CAH         83.8580   -11.5670    93.5050 C.ar         1 GVD305   0.0000
    28 CA0         85.8450    -9.5410    96.0790 C.3          1 GVD305   0.0000
    29 CAT         84.9740   -10.6090    95.4040 C.ar         1 GVD305   0.0000
    30 HAL1        87.5865   -11.6294    93.8942 H            1 GVD305   0.0000
    31 HAL2        88.9452   -10.7591    94.1451 H            1 GVD305   0.0000
    32 HAM1        88.4139    -9.3477    92.1268 H            1 GVD305   0.0000
    33 HAM2        87.0551   -10.2180    91.8759 H            1 GVD305   0.0000
    34 HBB         89.8047   -11.3995    91.9058 H            1 GVD305   0.0000
    35 HAK         86.0777   -12.5700    91.9160 H            1 GVD305   0.0000
    36 HAR         85.8631   -15.7270    89.7952 H            1 GVD305   0.0000
    37 HAJ         84.6084   -16.7869    89.1215 H            1 GVD305   0.0000
    38 HAD         82.8760   -18.1994    88.2812 H            1 GVD305   0.0000
    39 HAC         80.7013   -18.2099    89.3016 H            1 GVD305   0.0000
    40 HAI         80.3013   -16.8111    91.2092 H            1 GVD305   0.0000
    41 HAQ         81.7464   -13.7339    94.2222 H            1 GVD305   0.0000
    42 HAG         83.3008   -13.3864    96.1928 H            1 GVD305   0.0000
    43 HAE         84.7191   -11.7090    97.1431 H            1 GVD305   0.0000
    44 HAF         85.0198    -9.8292    93.4733 H            1 GVD305   0.0000
    45 HAH         83.6062   -11.5177    92.5385 H            1 GVD305   0.0000
    46 HA01        85.3521    -9.2003    96.8796 H            1 GVD305   0.0000
    47 HA02        86.6965    -9.9759    96.3720 H            1 GVD305   0.0000
    48 HAS         89.7823   -13.6987    90.6778 H            1 GVD305   0.0000
@<TRIPOS>BOND
     1    1    2       1
     2    1    3       1
     3    2    3       1
     4    3    4       1
     5    4    5       2
     6    4    6       1
     7    5    8       1
     8    6    7       1
     9    7    8       2
    10    8    9       1
    11    9   10       1
    12   10   11      ar
    13   10   12      ar
    14   11   19      ar
    15   12   13      ar
    16   12   17      ar
    17   13   14      ar
    18   14   15      ar
    19   15   16      ar
    20   16   17      ar
    21   17   18      ar
    22   18   19      ar
    23   19   20       1
    24   20   21       1
    25   21   22      ar
    26   21   27      ar
    27   22   23      ar
    28   23   29      ar
    29   24   25       3
    30   24   28       1
    31   26   27      ar
    32   26   29      ar
    33   28   29       1
    34    1   30       1
    35    1   31       1
    36    2   32       1
    37    2   33       1
    38    3   34       1
    39    5   35       1
    40   28   47       1
    41    9   36       1
    42   13   37       1
    43   14   38       1
    44   15   39       1
    45   16   40       1
    46   20   41       1
    47   22   42       1
    48   23   43       1
    49   26   44       1
    50   27   45       1
    51   28   46       1
    52    6   48       1
@<TRIPOS>SUBSTRUCTURE
     1 GVD305      1 GROUP             4 A     GVD     0 **** GVD A 305
