@<TRIPOS>MOLECULE
2w0u_C7C_1_ligand
   20    21     1     0     0
SMALL
NO_CHARGES


@<TRIPOS>ATOM
     1 CL         -40.9800    26.8980    25.4490 Cl           1 C7C1364   0.0000
     2 C1         -42.5220    26.0920    25.8880 C.ar         1 C7C1364   0.0000
     3 C2         -43.7310    26.6190    25.4510 C.ar         1 C7C1364   0.0000
     4 C3         -44.9250    25.9940    25.7910 C.ar         1 C7C1364   0.0000
     5 C6         -42.5070    24.9390    26.6660 C.ar         1 C7C1364   0.0000
     6 C5         -43.7010    24.3150    27.0060 C.ar         1 C7C1364   0.0000
     7 C4         -44.9100    24.8420    26.5680 C.ar         1 C7C1364   0.0000
     8 S8         -46.3670    24.0800    26.9830 S.3          1 C7C1364   0.0000
     9 C9         -46.6040    24.1780    28.7090 C.2          1 C7C1364   0.0000
    10 C13        -47.7050    23.5250    29.4540 C.2          1 C7C1364   0.0000
    11 C14        -48.7220    22.7080    28.7340 C.2          1 C7C1364   0.0000
    12 O15        -48.8360    22.8360    27.4960 O.co2        1 C7C1364   0.0000
    13 O16        -49.4340    21.9140    29.3860 O.co2        1 C7C1364  -1.0000
    14 S10        -45.5950    25.0460    29.7970 S.3          1 C7C1364   0.0000
    15 N11        -46.5010    24.6250    31.1720 N.2          1 C7C1364   0.0000
    16 N12        -47.6020    23.8010    30.7920 N.2          1 C7C1364   0.0000
    17 H1         -43.7421    27.4480    24.8918 H            1 C7C1364   0.0000
    18 H2         -45.7951    26.3734    25.4764 H            1 C7C1364   0.0000
    19 H3         -41.6370    24.5593    26.9806 H            1 C7C1364   0.0000
    20 H4         -43.6903    23.4866    27.5660 H            1 C7C1364   0.0000
@<TRIPOS>BOND
     1    1    2       1
     2    2    3      ar
     3    2    5      ar
     4    3    4      ar
     5    4    7      ar
     6    5    6      ar
     7    6    7      ar
     8    7    8       1
     9    8    9       1
    10    9   10       2
    11    9   14       1
    12   10   11       1
    13   10   16       1
    14   11   12      ar
    15   11   13      ar
    16   14   15       1
    17   15   16       2
    18    3   17       1
    19    4   18       1
    20    5   19       1
    21    6   20       1
@<TRIPOS>SUBSTRUCTURE
     1 C7C1364     1 GROUP             4 A     C7C     0 **** C7C A1364
