@<TRIPOS>MOLECULE
2p3q_SAH_2_ligand
   46    48     1     0     0
SMALL
NO_CHARGES


@<TRIPOS>ATOM
     1 N          -11.3170    82.5160     7.6490 N.4          1 SAH1001   1.0000
     2 CA         -10.0690    83.3050     7.6860 C.3          1 SAH1001   0.0000
     3 CB          -9.6450    83.6620     9.1010 C.3          1 SAH1001   0.0000
     4 CG          -9.4370    85.1670     9.2480 C.3          1 SAH1001   0.0000
     5 SD          -9.6330    85.6750    10.9740 S.3          1 SAH1001   0.0000
     6 C           -8.9610    82.5240     7.0440 C.2          1 SAH1001   0.0000
     7 O           -9.1450    81.3130     6.9300 O.co2        1 SAH1001   0.0000
     8 OXT         -7.9170    83.0820     6.6400 O.co2        1 SAH1001  -1.0000
     9 C5'        -11.1090    86.7360    10.7870 C.3          1 SAH1001   0.0000
    10 C4'        -10.9190    88.1320    10.1750 C.3          1 SAH1001   0.0000
    11 O4'        -12.0540    88.9450    10.3890 O.3          1 SAH1001   0.0000
    12 C3'         -9.7500    88.9430    10.7190 C.3          1 SAH1001   0.0000
    13 O3'         -8.7390    88.8640     9.7440 O.3          1 SAH1001   0.0000
    14 C2'        -10.2640    90.3650    10.9500 C.3          1 SAH1001   0.0000
    15 O2'         -9.6030    91.3700    10.2280 O.3          1 SAH1001   0.0000
    16 C1'        -11.6390    90.3050    10.3480 C.3          1 SAH1001   0.0000
    17 N9         -12.6360    91.1100    11.0630 N.pl3        1 SAH1001   0.0000
    18 C8         -12.8370    91.2200    12.4240 C.2          1 SAH1001   0.0000
    19 N7         -13.9020    92.0360    12.6160 N.2          1 SAH1001   0.0000
    20 C5         -14.3740    92.4370    11.4120 C.ar         1 SAH1001   0.0000
    21 C6         -15.4270    93.2590    11.0290 C.ar         1 SAH1001   0.0000
    22 N6         -16.1910    93.8210    11.9620 N.pl3        1 SAH1001   0.0000
    23 N1         -15.6920    93.4890     9.6820 N.ar         1 SAH1001   0.0000
    24 C2         -14.8940    92.9060     8.7200 C.ar         1 SAH1001   0.0000
    25 N3         -13.8450    92.0870     9.1090 N.ar         1 SAH1001   0.0000
    26 C4         -13.5940    91.8570    10.4260 C.ar         1 SAH1001   0.0000
    27 H1         -12.0100    83.0126     7.1263 H            1 SAH1001   0.0000
    28 H2         -11.1404    81.6331     7.2138 H            1 SAH1001   0.0000
    29 HA         -10.2077    84.1499     7.1694 H            1 SAH1001   0.0000
    30 HB1         -8.7888    83.1914     9.3141 H            1 SAH1001   0.0000
    31 HB2        -10.3556    83.3664     9.7395 H            1 SAH1001   0.0000
    32 HG1        -10.1101    85.6477     8.6860 H            1 SAH1001   0.0000
    33 HG2         -8.5155    85.4026     8.9392 H            1 SAH1001   0.0000
    34 H5'1       -11.5027    86.8613    11.6976 H            1 SAH1001   0.0000
    35 H5'2       -11.7584    86.2431    10.2080 H            1 SAH1001   0.0000
    36 H4'        -10.7928    88.0257     9.1887 H            1 SAH1001   0.0000
    37 H3'         -9.4290    88.5490    11.5802 H            1 SAH1001   0.0000
    38 H12         -7.9402    89.3823    10.0494 H            1 SAH1001   0.0000
    39 H2'        -10.3032    90.5836    11.9250 H            1 SAH1001   0.0000
    40 H14         -8.6526    91.0997    10.0742 H            1 SAH1001   0.0000
    41 H1'        -11.5945    90.6066     9.3956 H            1 SAH1001   0.0000
    42 H16        -12.2952    90.7779    13.1388 H            1 SAH1001   0.0000
    43 H17        -16.9509    94.4139    11.6956 H            1 SAH1001   0.0000
    44 H18        -16.0053    93.6505    12.9297 H            1 SAH1001   0.0000
    45 H19        -15.0705    93.0726     7.7499 H            1 SAH1001   0.0000
    46 H20        -11.6456    82.3680     8.5818 H            1 SAH1001   0.0000
@<TRIPOS>BOND
     1    1    2       1
     2    2    3       1
     3    2    6       1
     4    3    4       1
     5    4    5       1
     6    5    9       1
     7    6    7      ar
     8    6    8      ar
     9    9   10       1
    10   10   11       1
    11   10   12       1
    12   11   16       1
    13   12   13       1
    14   12   14       1
    15   14   15       1
    16   14   16       1
    17   16   17       1
    18   17   18       1
    19   17   26       1
    20   18   19       2
    21   19   20       1
    22   20   21      ar
    23   20   26      ar
    24   21   22       1
    25   21   23      ar
    26   23   24      ar
    27   24   25      ar
    28   25   26      ar
    29    1   27       1
    30    1   28       1
    31    2   29       1
    32    3   30       1
    33    3   31       1
    34    4   32       1
    35    4   33       1
    36    1   46       1
    37    9   34       1
    38    9   35       1
    39   10   36       1
    40   12   37       1
    41   13   38       1
    42   14   39       1
    43   15   40       1
    44   16   41       1
    45   18   42       1
    46   22   43       1
    47   22   44       1
    48   24   45       1
@<TRIPOS>SUBSTRUCTURE
     1 SAH1001     1 GROUP             4 A     SAH     0 **** SAH A1001
