@<TRIPOS>MOLECULE
2w8r_ADP_1_ligand
   39    41     1     0     0
SMALL
NO_CHARGES


@<TRIPOS>ATOM
     1 PB          30.7560   -46.2810   -64.8200 P.3          1 ADP702   0.0000
     2 O1B         29.5560   -45.8730   -63.8880 O.co2        1 ADP702   0.0000
     3 O2B         32.0000   -45.6700   -64.2880 O.co2        1 ADP702  -1.0000
     4 O3B         30.4610   -45.9960   -66.2370 O.co2        1 ADP702  -1.0000
     5 PA          31.7600   -48.9250   -63.9600 P.3          1 ADP702   0.0000
     6 O1A         32.8750   -48.2210   -63.3030 O.co2        1 ADP702   0.0000
     7 O2A         32.1380   -50.0070   -64.9090 O.co2        1 ADP702  -1.0000
     8 O3A         30.7910   -47.9100   -64.7500 O.3          1 ADP702   0.0000
     9 O5'         30.7410   -49.5660   -62.9430 O.3          1 ADP702   0.0000
    10 C5'         30.1730   -48.7670   -61.8800 C.3          1 ADP702   0.0000
    11 C4'         30.1400   -49.5860   -60.5540 C.3          1 ADP702   0.0000
    12 O4'         30.9720   -50.7480   -60.6930 O.3          1 ADP702   0.0000
    13 C3'         30.6520   -48.8330   -59.3450 C.3          1 ADP702   0.0000
    14 O3'         29.8800   -49.1760   -58.1850 O.3          1 ADP702   0.0000
    15 C2'         32.1130   -49.3430   -59.2530 C.3          1 ADP702   0.0000
    16 O2'         32.7970   -49.2290   -58.0360 O.3          1 ADP702   0.0000
    17 C1'         31.9380   -50.7850   -59.6770 C.3          1 ADP702   0.0000
    18 N9          33.1760   -51.4050   -60.2490 N.pl3        1 ADP702   0.0000
    19 C8          34.0410   -50.8530   -61.1790 C.2          1 ADP702   0.0000
    20 N7          35.0390   -51.6870   -61.4650 N.2          1 ADP702   0.0000
    21 C5          34.8000   -52.8240   -60.6830 C.ar         1 ADP702   0.0000
    22 C6          35.4970   -54.0450   -60.5470 C.ar         1 ADP702   0.0000
    23 N6          36.5870   -54.3540   -61.1830 N.pl3        1 ADP702   0.0000
    24 N1          34.9260   -54.9220   -59.6600 N.ar         1 ADP702   0.0000
    25 C2          33.7940   -54.6570   -58.9710 C.ar         1 ADP702   0.0000
    26 N3          33.0720   -53.5250   -59.0430 N.ar         1 ADP702   0.0000
    27 C4          33.6560   -52.6840   -59.9200 C.ar         1 ADP702   0.0000
    28 H5'1        29.2414   -48.5009   -62.1278 H            1 ADP702   0.0000
    29 H5'2        30.7301   -47.9470   -61.7486 H            1 ADP702   0.0000
    30 H4'         29.2004   -49.8798   -60.3783 H            1 ADP702   0.0000
    31 H3'         30.6303   -47.8463   -59.5064 H            1 ADP702   0.0000
    32 H5          29.1050   -48.5494   -58.1032 H            1 ADP702   0.0000
    33 H2'         32.6497   -48.8758   -59.9556 H            1 ADP702   0.0000
    34 H7          32.8508   -48.2658   -57.7728 H            1 ADP702   0.0000
    35 H1'         31.6055   -51.3305   -58.9077 H            1 ADP702   0.0000
    36 H9          33.9304   -49.9452   -61.5836 H            1 ADP702   0.0000
    37 H10         37.0204   -55.2421   -61.0301 H            1 ADP702   0.0000
    38 H11         36.9925   -53.7037   -61.8254 H            1 ADP702   0.0000
    39 H12         33.4630   -55.3681   -58.3507 H            1 ADP702   0.0000
@<TRIPOS>BOND
     1    1    2      ar
     2    1    3      ar
     3    1    4      ar
     4    1    8       1
     5    5    6      ar
     6    5    7      ar
     7    5    8       1
     8    5    9       1
     9    9   10       1
    10   10   11       1
    11   11   12       1
    12   11   13       1
    13   12   17       1
    14   13   14       1
    15   13   15       1
    16   15   16       1
    17   15   17       1
    18   17   18       1
    19   18   19       1
    20   18   27       1
    21   19   20       2
    22   20   21       1
    23   21   22      ar
    24   21   27      ar
    25   22   23       1
    26   22   24      ar
    27   24   25      ar
    28   25   26      ar
    29   26   27      ar
    30   25   39       1
    31   23   38       1
    32   23   37       1
    33   10   28       1
    34   10   29       1
    35   11   30       1
    36   13   31       1
    37   14   32       1
    38   15   33       1
    39   16   34       1
    40   17   35       1
    41   19   36       1
@<TRIPOS>SUBSTRUCTURE
     1 ADP702      1 GROUP             4 A     ADP     0 **** ADP A 702
