@<TRIPOS>MOLECULE
2wgs_1AZ_7_ligand
   47    50     1     0     0
SMALL
NO_CHARGES


@<TRIPOS>ATOM
     1 O1          35.0530    39.0790   -26.6450 O.2          1 1AZ501   0.0000
     2 C5          35.6580    38.4000   -25.7800 C.2          1 1AZ501   0.0000
     3 N1          36.9860    38.5590   -25.6070 N.pl3        1 1AZ501   0.0000
     4 C4          37.7310    39.5070   -26.4470 C.3          1 1AZ501   0.0000
     5 C3          37.8530    40.8690   -25.8220 C.ar         1 1AZ501   0.0000
     6 C2          37.0230    41.8950   -26.2760 C.ar         1 1AZ501   0.0000
     7 C1          37.1540    43.1530   -25.6890 C.ar         1 1AZ501   0.0000
     8 CL1         36.1270    44.5350   -26.1900 Cl           1 1AZ501   0.0000
     9 C16         38.7960    41.1000   -24.8130 C.ar         1 1AZ501   0.0000
    10 C17         38.9170    42.3650   -24.2340 C.ar         1 1AZ501   0.0000
    11 C18         38.0800    43.3770   -24.6880 C.ar         1 1AZ501   0.0000
    12 CL2         38.1760    45.0170   -23.9980 Cl           1 1AZ501   0.0000
    13 C6          34.9620    37.4710   -24.9930 C.2          1 1AZ501   0.0000
    14 N2          33.6620    37.0920   -24.9300 N.pl3        1 1AZ501   0.0000
    15 C7          32.5340    37.6300   -25.7620 C.3          1 1AZ501   0.0000
    16 C8          33.5550    36.1460   -23.9670 C.2          1 1AZ501   0.0000
    17 N4          34.7720    35.9300   -23.4310 N.2          1 1AZ501   0.0000
    18 C13         35.6670    36.7300   -24.0430 C.2          1 1AZ501   0.0000
    19 N5          36.9920    36.8980   -23.8740 N.pl3        1 1AZ501   0.0000
    20 C14         37.7280    36.1220   -22.8750 C.3          1 1AZ501   0.0000
    21 C15         37.6710    37.7810   -24.6260 C.2          1 1AZ501   0.0000
    22 O3          38.9090    37.9090   -24.4510 O.2          1 1AZ501   0.0000
    23 N3          32.3140    35.4500   -23.5320 N.pl3        1 1AZ501   0.0000
    24 C9          31.8440    34.4800   -24.5220 C.3          1 1AZ501   0.0000
    25 C10         30.4210    34.1780   -24.0600 C.3          1 1AZ501   0.0000
    26 O2          30.4670    33.6140   -22.7380 O.3          1 1AZ501   0.0000
    27 C11         31.0520    34.4750   -21.7470 C.3          1 1AZ501   0.0000
    28 C12         32.4620    34.8570   -22.1960 C.3          1 1AZ501   0.0000
    29 H1          37.2569    39.5987   -27.3227 H            1 1AZ501   0.0000
    30 H2          38.6495    39.1431   -26.6017 H            1 1AZ501   0.0000
    31 H3          36.3538    41.7327   -27.0012 H            1 1AZ501   0.0000
    32 H4          39.3867    40.3542   -24.5050 H            1 1AZ501   0.0000
    33 H5          39.5875    42.5378   -23.5125 H            1 1AZ501   0.0000
    34 H6          31.6829    37.1718   -25.5059 H            1 1AZ501   0.0000
    35 H7          32.4435    38.6134   -25.6049 H            1 1AZ501   0.0000
    36 H8          32.7243    37.4631   -26.7294 H            1 1AZ501   0.0000
    37 H9          38.6933    36.3824   -22.8956 H            1 1AZ501   0.0000
    38 H10         37.3523    36.3063   -21.9668 H            1 1AZ501   0.0000
    39 H11         37.6413    35.1471   -23.0801 H            1 1AZ501   0.0000
    40 H12         32.4079    33.6542   -24.5116 H            1 1AZ501   0.0000
    41 H13         31.8472    34.8744   -25.4410 H            1 1AZ501   0.0000
    42 H14         29.9960    33.5260   -24.6879 H            1 1AZ501   0.0000
    43 H15         29.8869    35.0233   -24.0454 H            1 1AZ501   0.0000
    44 H16         31.0968    33.9962   -20.8702 H            1 1AZ501   0.0000
    45 H17         30.4957    35.3001   -21.6482 H            1 1AZ501   0.0000
    46 H18         32.8604    35.5210   -21.5632 H            1 1AZ501   0.0000
    47 H19         33.0450    34.0457   -22.2385 H            1 1AZ501   0.0000
@<TRIPOS>BOND
     1    1    2       2
     2    2    3       1
     3    2   13       1
     4    3    4       1
     5    3   21       1
     6    4    5       1
     7    5    6      ar
     8    5    9      ar
     9    6    7      ar
    10    7    8       1
    11    7   11      ar
    12    9   10      ar
    13   10   11      ar
    14   11   12       1
    15   13   14       1
    16   13   18       2
    17   14   15       1
    18   14   16       1
    19   16   17       2
    20   16   23       1
    21   17   18       1
    22   18   19       1
    23   19   20       1
    24   19   21       1
    25   21   22       2
    26   23   24       1
    27   23   28       1
    28   24   25       1
    29   25   26       1
    30   26   27       1
    31   27   28       1
    32    4   29       1
    33    4   30       1
    34    6   31       1
    35    9   32       1
    36   10   33       1
    37   15   34       1
    38   15   35       1
    39   15   36       1
    40   20   37       1
    41   20   38       1
    42   20   39       1
    43   24   40       1
    44   24   41       1
    45   25   42       1
    46   25   43       1
    47   27   44       1
    48   27   45       1
    49   28   46       1
    50   28   47       1
@<TRIPOS>SUBSTRUCTURE
     1 1AZ501      1 GROUP             4 G     1AZ     0 **** 1AZ G 501
