@<TRIPOS>MOLECULE
3dzi_RGT_1_ligand
   22    22     1     0     0
SMALL
NO_CHARGES


@<TRIPOS>ATOM
     1 O2P          5.5850     4.0380     3.8300 O.co2        1 RGT301   0.0000
     2 P            4.1380     4.5430     4.0360 P.3          1 RGT301   0.0000
     3 O3P          3.7370     5.8110     3.2500 O.co2        1 RGT301  -1.0000
     4 O1P          3.6950     4.5180     5.5180 O.co2        1 RGT301  -1.0000
     5 O5R          3.2130     3.3940     3.3360 O.3          1 RGT301   0.0000
     6 C5R          1.7690     3.4710     3.2860 C.3          1 RGT301   0.0000
     7 C4R          1.2210     3.7240     1.8820 C.3          1 RGT301   0.0000
     8 O4R          1.7340     2.7110     1.0080 O.3          1 RGT301   0.0000
     9 C3R         -0.3030     3.6270     1.7900 C.3          1 RGT301   0.0000
    10 O3R         -0.8250     4.7570     1.0810 O.3          1 RGT301   0.0000
    11 C2R         -0.6250     2.4080     0.9490 C.3          1 RGT301   0.0000
    12 O2R         -1.4140     2.8740    -0.1460 O.3          1 RGT301   0.0000
    13 C1R          0.6970     1.9860     0.3370 C.3          1 RGT301   0.0000
    14 H5R1         1.4709     4.2170     3.8815 H            1 RGT301   0.0000
    15 H5R2         1.3940     2.6067     3.6213 H            1 RGT301   0.0000
    16 H4R          1.5192     4.6237     1.5632 H            1 RGT301   0.0000
    17 H3R         -0.7130     3.5537     2.6991 H            1 RGT301   0.0000
    18 H5          -0.1496     5.0736     0.4149 H            1 RGT301   0.0000
    19 H2R         -1.0678     1.6778     1.4693 H            1 RGT301   0.0000
    20 H7          -0.8912     3.5450    -0.6718 H            1 RGT301   0.0000
    21 H1R1         0.8324     1.0030     0.4614 H            1 RGT301   0.0000
    22 H1R2         0.7058     2.2027    -0.6392 H            1 RGT301   0.0000
@<TRIPOS>BOND
     1    1    2      ar
     2    2    3      ar
     3    2    4      ar
     4    2    5       1
     5    5    6       1
     6    6    7       1
     7    7    8       1
     8    7    9       1
     9    8   13       1
    10    9   10       1
    11    9   11       1
    12   11   12       1
    13   11   13       1
    14   13   22       1
    15   13   21       1
    16    6   14       1
    17    6   15       1
    18    7   16       1
    19    9   17       1
    20   10   18       1
    21   11   19       1
    22   12   20       1
@<TRIPOS>SUBSTRUCTURE
     1 RGT301      1 GROUP             4 A     RGT     0 **** RGT A 301
