@<TRIPOS>MOLECULE
3zia_ATP_1_ligand
   43    45     1     0     0
SMALL
NO_CHARGES


@<TRIPOS>ATOM
     1 PG          96.8320     9.6370   187.4070 P.3          1 ATP600   0.0000
     2 O1G         98.1910     9.0610   187.5710 O.co2        1 ATP600   0.0000
     3 O2G         95.7880     8.6420   186.6740 O.co2        1 ATP600  -1.0000
     4 O3G         96.8980    10.9140   186.4090 O.co2        1 ATP600  -1.0000
     5 PB          94.7420    10.1660   189.4400 P.3          1 ATP600   0.0000
     6 O1B         94.0050    11.4230   189.1730 O.co2        1 ATP600   0.0000
     7 O2B         94.0510     8.8940   189.1700 O.co2        1 ATP600  -1.0000
     8 O3B         96.2570    10.2020   188.8240 O.3          1 ATP600   0.0000
     9 PA          95.8240     9.1530   191.9570 P.3          1 ATP600   0.0000
    10 O1A         94.6920     8.3180   192.4020 O.co2        1 ATP600   0.0000
    11 O2A         96.9950     8.5100   191.3230 O.co2        1 ATP600  -1.0000
    12 O3A         95.1890    10.3080   191.0050 O.3          1 ATP600   0.0000
    13 O5'         96.3480    10.0760   193.1560 O.3          1 ATP600   0.0000
    14 C5'         97.3930    11.0040   192.8720 C.3          1 ATP600   0.0000
    15 C4'         98.4850    11.0240   193.9720 C.3          1 ATP600   0.0000
    16 O4'         97.9390    11.6170   195.1960 O.3          1 ATP600   0.0000
    17 C3'         99.0910     9.6880   194.3850 C.3          1 ATP600   0.0000
    18 O3'        100.4360     9.9520   194.7890 O.3          1 ATP600   0.0000
    19 C2'         98.2400     9.2930   195.5910 C.3          1 ATP600   0.0000
    20 O2'         98.9840     8.4450   196.4700 O.3          1 ATP600   0.0000
    21 C1'         97.9940    10.6410   196.2670 C.3          1 ATP600   0.0000
    22 N9          96.7010    10.7310   196.9960 N.pl3        1 ATP600   0.0000
    23 C8          95.4910    10.3920   196.5450 C.2          1 ATP600   0.0000
    24 N7          94.5720    10.6200   197.4900 N.2          1 ATP600   0.0000
    25 C5          95.2020    11.1190   198.5510 C.ar         1 ATP600   0.0000
    26 C6          94.7930    11.5510   199.8140 C.ar         1 ATP600   0.0000
    27 N6          93.5140    11.5080   200.1870 N.pl3        1 ATP600   0.0000
    28 N1          95.7230    12.0220   200.6660 N.ar         1 ATP600   0.0000
    29 C2          97.0090    12.0710   200.3290 C.ar         1 ATP600   0.0000
    30 N3          97.4340    11.6680   199.1370 N.ar         1 ATP600   0.0000
    31 C4          96.5560    11.1940   198.2340 C.ar         1 ATP600   0.0000
    32 H5'1        96.9972    11.9192   192.7964 H            1 ATP600   0.0000
    33 H5'2        97.8182    10.7519   192.0027 H            1 ATP600   0.0000
    34 H4'         99.2289    11.6115   193.6534 H            1 ATP600   0.0000
    35 H3'         99.0437     9.0097   193.6517 H            1 ATP600   0.0000
    36 H5         100.8735     9.0977   195.0697 H            1 ATP600   0.0000
    37 H2'         97.3822     8.8638   195.3083 H            1 ATP600   0.0000
    38 H7          98.4147     8.1953   197.2533 H            1 ATP600   0.0000
    39 H1'         98.7500    10.8555   196.8855 H            1 ATP600   0.0000
    40 H9          95.3000    10.0224   195.6356 H            1 ATP600   0.0000
    41 H10         93.2479    11.8238   201.0978 H            1 ATP600   0.0000
    42 H11         92.8206    11.1600   199.5561 H            1 ATP600   0.0000
    43 H12         97.6728    12.4203   200.9903 H            1 ATP600   0.0000
@<TRIPOS>BOND
     1    1    2      ar
     2    1    3      ar
     3    1    4      ar
     4    1    8       1
     5    5    6      ar
     6    5    7      ar
     7    5    8       1
     8    5   12       1
     9    9   10      ar
    10    9   11      ar
    11    9   12       1
    12    9   13       1
    13   13   14       1
    14   14   15       1
    15   15   16       1
    16   15   17       1
    17   16   21       1
    18   17   18       1
    19   17   19       1
    20   19   20       1
    21   19   21       1
    22   21   22       1
    23   22   23       1
    24   22   31       1
    25   23   24       2
    26   24   25       1
    27   25   26      ar
    28   25   31      ar
    29   26   27       1
    30   26   28      ar
    31   28   29      ar
    32   29   30      ar
    33   30   31      ar
    34   29   43       1
    35   27   42       1
    36   27   41       1
    37   23   40       1
    38   14   32       1
    39   14   33       1
    40   15   34       1
    41   17   35       1
    42   18   36       1
    43   19   37       1
    44   20   38       1
    45   21   39       1
@<TRIPOS>SUBSTRUCTURE
     1 ATP600      1 GROUP             4 A     ATP     0 **** ATP A 600
