@<TRIPOS>MOLECULE
4hbn_CMP_1_ligand
   34    37     1     0     0
SMALL
NO_CHARGES


@<TRIPOS>ATOM
     1 P          -26.2400    -4.7880    44.7490 P.3          1 CMP801   0.0000
     2 O1P        -26.3260    -5.3780    46.1410 O.3          1 CMP801   0.0000
     3 O2P        -24.8340    -4.3430    44.4090 O.2          1 CMP801   0.0000
     4 O5'        -26.7390    -5.8510    43.6510 O.3          1 CMP801   0.0000
     5 C5'        -28.1170    -6.0420    43.3580 C.3          1 CMP801   0.0000
     6 C4'        -28.6530    -4.6390    43.1590 C.3          1 CMP801   0.0000
     7 O4'        -30.0320    -4.6220    42.8360 O.3          1 CMP801   0.0000
     8 C3'        -28.5980    -3.8790    44.4650 C.3          1 CMP801   0.0000
     9 O3'        -27.2450    -3.5320    44.6750 O.3          1 CMP801   0.0000
    10 C2'        -29.5370    -2.7220    44.2140 C.3          1 CMP801   0.0000
    11 O2'        -28.8350    -1.6760    43.5420 O.3          1 CMP801   0.0000
    12 C1'        -30.5390    -3.3660    43.2670 C.3          1 CMP801   0.0000
    13 N9         -31.7600    -3.6720    44.0250 N.pl3        1 CMP801   0.0000
    14 C8         -31.8650    -4.5560    45.0250 C.2          1 CMP801   0.0000
    15 N7         -33.1330    -4.5890    45.5020 N.2          1 CMP801   0.0000
    16 C5         -33.8590    -3.7110    44.7820 C.ar         1 CMP801   0.0000
    17 C6         -35.2700    -3.2470    44.7620 C.ar         1 CMP801   0.0000
    18 N6         -36.1780    -3.7590    45.6300 N.pl3        1 CMP801   0.0000
    19 N1         -35.6130    -2.3210    43.8360 N.ar         1 CMP801   0.0000
    20 C2         -34.7030    -1.8440    42.9580 C.ar         1 CMP801   0.0000
    21 N3         -33.4090    -2.2140    42.9100 N.ar         1 CMP801   0.0000
    22 C4         -32.9420    -3.1200    43.7940 C.ar         1 CMP801   0.0000
    23 H1P        -25.6387    -4.9497    46.7276 H            1 CMP801   0.0000
    24 H5'1       -28.5819    -6.4946    44.1189 H            1 CMP801   0.0000
    25 H5'2       -28.2307    -6.5862    42.5268 H            1 CMP801   0.0000
    26 H4'        -28.1254    -4.1616    42.4564 H            1 CMP801   0.0000
    27 H3'        -28.9348    -4.4473    45.2158 H            1 CMP801   0.0000
    28 H2'        -29.9702    -2.4015    45.0564 H            1 CMP801   0.0000
    29 H7         -28.8571    -0.8471    44.1009 H            1 CMP801   0.0000
    30 H1'        -30.7363    -2.7695    42.4890 H            1 CMP801   0.0000
    31 H9         -31.1118    -5.1148    45.3720 H            1 CMP801   0.0000
    32 H10        -37.1255    -3.4399    45.6084 H            1 CMP801   0.0000
    33 H11        -35.8999    -4.4555    46.2915 H            1 CMP801   0.0000
    34 H12        -35.0142    -1.1646    42.2934 H            1 CMP801   0.0000
@<TRIPOS>BOND
     1    1    2       1
     2    1    3       2
     3    1    4       1
     4    1    9       1
     5    4    5       1
     6    5    6       1
     7    6    7       1
     8    6    8       1
     9    7   12       1
    10    8    9       1
    11    8   10       1
    12   10   11       1
    13   10   12       1
    14   12   13       1
    15   13   14       1
    16   13   22       1
    17   14   15       2
    18   15   16       1
    19   16   17      ar
    20   16   22      ar
    21   17   18       1
    22   17   19      ar
    23   19   20      ar
    24   20   21      ar
    25   21   22      ar
    26    2   23       1
    27    5   24       1
    28    5   25       1
    29    6   26       1
    30    8   27       1
    31   10   28       1
    32   11   29       1
    33   12   30       1
    34   14   31       1
    35   18   32       1
    36   18   33       1
    37   20   34       1
@<TRIPOS>SUBSTRUCTURE
     1 CMP801      1 GROUP             4 A     CMP     0 **** CMP A 801
