@<TRIPOS>MOLECULE
3imx_B84_1_ligand
   71    75     1     0     0
SMALL
NO_CHARGES


@<TRIPOS>ATOM
     1 S1           4.0870     5.9000   -16.1130 S.o2         1 B84466   0.0000
     2 O2           5.3290     5.4560   -16.6500 O.2          1 B84466   0.0000
     3 O3           3.9680     6.4970   -14.8280 O.2          1 B84466   0.0000
     4 N4           3.4180     6.9150   -17.2180 N.3          1 B84466   0.0000
     5 C5           2.2550     7.7760   -16.8080 C.3          1 B84466   0.0000
     6 C8           2.2660     9.0710   -17.6240 C.3          1 B84466   0.0000
     7 N11          2.2840     8.7290   -19.0700 N.4          1 B84466   1.0000
     8 C12          3.5840     8.0730   -19.3990 C.3          1 B84466   0.0000
     9 C15          3.6680     6.7030   -18.6960 C.3          1 B84466   0.0000
    10 C18          2.2520    10.0150   -19.7830 C.3          1 B84466   0.0000
    11 C22          3.0550     4.4950   -16.0250 C.ar         1 B84466   0.0000
    12 C23          3.2560     3.4340   -16.9090 C.ar         1 B84466   0.0000
    13 C25          2.4630     2.2980   -16.7930 C.ar         1 B84466   0.0000
    14 C27          1.4660     2.2220   -15.8030 C.ar         1 B84466   0.0000
    15 C28          1.2460     3.3010   -14.9250 C.ar         1 B84466   0.0000
    16 C30          2.0430     4.4370   -15.0410 C.ar         1 B84466   0.0000
    17 C32          0.6830     0.9170   -15.6790 C.3          1 B84466   0.0000
    18 C34          1.0430     0.1760   -14.3460 C.3          1 B84466   0.0000
    19 C37          2.5760     0.0280   -14.1070 C.3          1 B84466   0.0000
    20 C39          2.8620    -0.5130   -12.7070 C.3          1 B84466   0.0000
    21 C42          4.1920    -1.2480   -12.8710 C.3          1 B84466   0.0000
    22 C45          4.0230    -1.9570   -14.2390 C.3          1 B84466   0.0000
    23 C48          3.2590    -0.9320   -15.1080 C.3          1 B84466   0.0000
    24 C51         -0.8030     1.0350   -15.7920 C.2          1 B84466   0.0000
    25 O52         -1.3540     2.1300   -15.8980 O.2          1 B84466   0.0000
    26 N53         -1.5110    -0.1270   -15.7570 N.am         1 B84466   0.0000
    27 C55         -2.8290    -0.1530   -16.0930 C.2          1 B84466   0.0000
    28 S56         -3.8690     1.2270   -16.5110 S.3          1 B84466   0.0000
    29 C57         -5.3460     0.2950   -16.7970 C.ar         1 B84466   0.0000
    30 N58         -6.5670     0.6060   -17.1510 N.ar         1 B84466   0.0000
    31 C59         -7.5300    -0.3160   -17.2980 C.ar         1 B84466   0.0000
    32 C60         -7.2320    -1.6840   -17.0620 C.ar         1 B84466   0.0000
    33 C62         -5.9450    -2.0640   -16.6850 C.ar         1 B84466   0.0000
    34 C64         -4.9260    -1.0450   -16.5360 C.ar         1 B84466   0.0000
    35 N65         -3.6330    -1.1830   -16.1870 N.2          1 B84466   0.0000
    36 O66         -8.7900     0.0510   -17.6630 O.3          1 B84466   0.0000
    37 C67         -8.7590     1.2720   -18.4420 C.3          1 B84466   0.0000
    38 H1           2.3288     7.9945   -15.8350 H            1 B84466   0.0000
    39 H2           1.4007     7.2839   -16.9753 H            1 B84466   0.0000
    40 H3           3.0800     9.6049   -17.3952 H            1 B84466   0.0000
    41 H4           1.4471     9.6059   -17.4158 H            1 B84466   0.0000
    42 H5           4.3370     8.6529   -19.0879 H            1 B84466   0.0000
    43 H6           3.6499     7.9434   -20.3884 H            1 B84466   0.0000
    44 H7           2.9759     6.0866   -19.0716 H            1 B84466   0.0000
    45 H8           4.5762     6.3073   -18.8326 H            1 B84466   0.0000
    46 H9           2.2624     9.8497   -20.7692 H            1 B84466   0.0000
    47 H10          1.4198    10.5119   -19.5370 H            1 B84466   0.0000
    48 H11          3.0521    10.5578   -19.5276 H            1 B84466   0.0000
    49 H12          3.9608     3.4901   -17.6162 H            1 B84466   0.0000
    50 H13          2.6021     1.5295   -17.4175 H            1 B84466   0.0000
    51 H14          0.5291     3.2521   -14.2296 H            1 B84466   0.0000
    52 H15          1.8988     5.2129   -14.4268 H            1 B84466   0.0000
    53 H16          0.9840     0.3269   -16.4282 H            1 B84466   0.0000
    54 H17          0.6379    -0.7379   -14.3733 H            1 B84466   0.0000
    55 H18          0.6526     0.6911   -13.5829 H            1 B84466   0.0000
    56 H19          2.9995     0.9299   -14.1920 H            1 B84466   0.0000
    57 H20          2.1412    -1.1404   -12.4125 H            1 B84466   0.0000
    58 H21          2.9453     0.2328   -12.0461 H            1 B84466   0.0000
    59 H22          4.3304    -1.9114   -12.1357 H            1 B84466   0.0000
    60 H23          4.9587    -0.6063   -12.8897 H            1 B84466   0.0000
    61 H24          3.4945    -2.7999   -14.1383 H            1 B84466   0.0000
    62 H25          4.9139    -2.1682   -14.6411 H            1 B84466   0.0000
    63 H26          3.8934    -0.4305   -15.6963 H            1 B84466   0.0000
    64 H27          2.5746    -1.3934   -15.6726 H            1 B84466   0.0000
    65 H28         -1.0559    -0.9734   -15.4804 H            1 B84466   0.0000
    66 H29         -7.9465    -2.3759   -17.1664 H            1 B84466   0.0000
    67 H30         -5.7282    -3.0261   -16.5198 H            1 B84466   0.0000
    68 H31         -9.6909     1.5260   -18.7008 H            1 B84466   0.0000
    69 H32         -8.3529     2.0052   -17.8965 H            1 B84466   0.0000
    70 H33         -8.2117     1.1276   -19.2664 H            1 B84466   0.0000
    71 H34          1.5073     8.1510   -19.3203 H            1 B84466   0.0000
@<TRIPOS>BOND
     1    1    2       2
     2    1    3       2
     3    1    4       1
     4    1   11       1
     5    4    5       1
     6    4    9       1
     7    5    6       1
     8    6    7       1
     9    7    8       1
    10    7   10       1
    11    8    9       1
    12   11   12      ar
    13   11   16      ar
    14   12   13      ar
    15   13   14      ar
    16   14   15      ar
    17   14   17       1
    18   15   16      ar
    19   17   18       1
    20   17   24       1
    21   18   19       1
    22   19   20       1
    23   19   23       1
    24   20   21       1
    25   21   22       1
    26   22   23       1
    27   24   25       2
    28   24   26      am
    29   26   27       1
    30   27   28       1
    31   27   35       2
    32   28   29       1
    33   29   30      ar
    34   29   34      ar
    35   30   31      ar
    36   31   32      ar
    37   31   36       1
    38   32   33      ar
    39   33   34      ar
    40   34   35       1
    41   36   37       1
    42    5   38       1
    43    5   39       1
    44    6   40       1
    45    6   41       1
    46    8   42       1
    47    8   43       1
    48    9   44       1
    49    9   45       1
    50   10   46       1
    51   10   47       1
    52   10   48       1
    53   12   49       1
    54   13   50       1
    55   15   51       1
    56   16   52       1
    57   17   53       1
    58   18   54       1
    59   18   55       1
    60   19   56       1
    61   20   57       1
    62   20   58       1
    63   21   59       1
    64   21   60       1
    65   22   61       1
    66   22   62       1
    67   23   63       1
    68   23   64       1
    69   26   65       1
    70   32   66       1
    71   33   67       1
    72   37   68       1
    73   37   69       1
    74   37   70       1
    75    7   71       1
@<TRIPOS>SUBSTRUCTURE
     1 B84466      1 GROUP             4 A     B84     0 **** B84 A 466
