@<TRIPOS>MOLECULE
3ara_MKH_1_ligand
   60    63     1     0     0
SMALL
NO_CHARGES


@<TRIPOS>ATOM
     1 O1           3.5850    10.0530   -11.9210 O.2          1 MKH165   0.0000
     2 C2           4.5700     9.6280   -12.4070 C.2          1 MKH165   0.0000
     3 N3           5.6140    10.4920   -12.3970 N.pl3        1 MKH165   0.0000
     4 C4           6.7760    10.1440   -12.9840 C.2          1 MKH165   0.0000
     5 N5           6.9200     8.8780   -13.5430 N.pl3        1 MKH165   0.0000
     6 C6           5.8950     7.9620   -13.5430 C.2          1 MKH165   0.0000
     7 C7           4.6430     8.3310   -12.8710 C.2          1 MKH165   0.0000
     8 O8           7.7100    10.9680   -13.0730 O.2          1 MKH165   0.0000
     9 C9           8.2410     8.4370   -14.1440 C.3          1 MKH165   0.0000
    10 C10          8.1860     8.2480   -15.6470 C.3          1 MKH165   0.0000
    11 C11          8.0030     9.6690   -16.2840 C.3          1 MKH165   0.0000
    12 S12          8.0830     9.5260   -17.9830 S.o2         1 MKH165   0.0000
    13 N13          8.2100    10.8940   -18.6920 N.3          1 MKH165   0.0000
    14 C14          9.4930    11.6190   -18.7470 C.3          1 MKH165   0.0000
    15 C15          9.5440    11.8740   -20.2780 C.3          1 MKH165   0.0000
    16 C16          8.0940    12.0190   -20.7640 C.3          1 MKH165   0.0000
    17 C17          7.2070    11.5030   -19.6070 C.3          1 MKH165   0.0000
    18 O18          9.2430     8.7140   -18.4110 O.2          1 MKH165   0.0000
    19 O19          6.8740     8.7950   -18.3500 O.2          1 MKH165   0.0000
    20 C20          6.3100    12.6010   -19.0140 C.3          1 MKH165   0.0000
    21 O21          7.0580    13.7250   -18.5030 O.3          1 MKH165   0.0000
    22 C22          5.3270    13.1030   -20.0480 C.ar         1 MKH165   0.0000
    23 C23          4.9140    14.4300   -19.9590 C.ar         1 MKH165   0.0000
    24 C24          3.9560    14.9200   -20.8830 C.ar         1 MKH165   0.0000
    25 C25          3.4530    14.0880   -21.8970 C.ar         1 MKH165   0.0000
    26 C26          3.9060    12.7740   -21.9820 C.ar         1 MKH165   0.0000
    27 C27          4.8190    12.2460   -21.0520 C.ar         1 MKH165   0.0000
    28 C28          5.5180    12.0880   -17.8300 C.ar         1 MKH165   0.0000
    29 C29          5.8230    12.6250   -16.5940 C.ar         1 MKH165   0.0000
    30 C30          5.1240    12.2340   -15.4850 C.ar         1 MKH165   0.0000
    31 C31          4.1250    11.2760   -15.5600 C.ar         1 MKH165   0.0000
    32 C32          3.7780    10.7140   -16.8200 C.ar         1 MKH165   0.0000
    33 C33          4.4680    11.1680   -17.9390 C.ar         1 MKH165   0.0000
    34 H1           5.5224    11.3846   -11.9556 H            1 MKH165   0.0000
    35 H2           5.9989     7.0720   -13.9869 H            1 MKH165   0.0000
    36 H3           3.8902     7.6827   -12.7568 H            1 MKH165   0.0000
    37 H4           8.5056     7.5685   -13.7249 H            1 MKH165   0.0000
    38 H5           8.9307     9.1308   -13.9369 H            1 MKH165   0.0000
    39 H6           7.4142     7.6608   -15.8909 H            1 MKH165   0.0000
    40 H7           9.0360     7.8333   -15.9719 H            1 MKH165   0.0000
    41 H8           8.7295    10.2769   -15.9635 H            1 MKH165   0.0000
    42 H9           7.1142    10.0436   -16.0199 H            1 MKH165   0.0000
    43 H10         10.2578    11.0567   -18.4325 H            1 MKH165   0.0000
    44 H11          9.4679    12.4706   -18.2233 H            1 MKH165   0.0000
    45 H12          9.9843    11.1035   -20.7390 H            1 MKH165   0.0000
    46 H13         10.0545    12.7124   -20.4687 H            1 MKH165   0.0000
    47 H14          7.9463    11.4706   -21.5870 H            1 MKH165   0.0000
    48 H15          7.8870    12.9774   -20.9605 H            1 MKH165   0.0000
    49 H16          6.6205    10.7744   -19.9609 H            1 MKH165   0.0000
    50 H17          7.1820    14.4009   -19.2295 H            1 MKH165   0.0000
    51 H18          5.2884    15.0302   -19.2521 H            1 MKH165   0.0000
    52 H19          3.6362    15.8648   -20.8121 H            1 MKH165   0.0000
    53 H20          2.7787    14.4347   -22.5490 H            1 MKH165   0.0000
    54 H21          3.5735    12.1910   -22.7233 H            1 MKH165   0.0000
    55 H22          5.1022    11.2881   -21.0993 H            1 MKH165   0.0000
    56 H23          6.5557    13.3004   -16.5100 H            1 MKH165   0.0000
    57 H24          5.3385    12.6485   -14.6006 H            1 MKH165   0.0000
    58 H25          3.6498    10.9809   -14.7311 H            1 MKH165   0.0000
    59 H26          3.0642    10.0181   -16.8983 H            1 MKH165   0.0000
    60 H27          4.2080    10.8292   -18.8432 H            1 MKH165   0.0000
@<TRIPOS>BOND
     1    1    2       2
     2    2    3       1
     3    2    7       1
     4    3    4       1
     5    4    5       1
     6    4    8       2
     7    5    6       1
     8    5    9       1
     9    6    7       2
    10    9   10       1
    11   10   11       1
    12   11   12       1
    13   12   13       1
    14   12   18       2
    15   12   19       2
    16   13   14       1
    17   13   17       1
    18   14   15       1
    19   15   16       1
    20   16   17       1
    21   17   20       1
    22   20   21       1
    23   20   22       1
    24   20   28       1
    25   22   23      ar
    26   22   27      ar
    27   23   24      ar
    28   24   25      ar
    29   25   26      ar
    30   26   27      ar
    31   28   29      ar
    32   28   33      ar
    33   29   30      ar
    34   30   31      ar
    35   31   32      ar
    36   32   33      ar
    37    3   34       1
    38    6   35       1
    39    7   36       1
    40    9   37       1
    41    9   38       1
    42   10   39       1
    43   10   40       1
    44   11   41       1
    45   11   42       1
    46   14   43       1
    47   14   44       1
    48   15   45       1
    49   15   46       1
    50   16   47       1
    51   16   48       1
    52   17   49       1
    53   21   50       1
    54   23   51       1
    55   24   52       1
    56   25   53       1
    57   26   54       1
    58   27   55       1
    59   29   56       1
    60   30   57       1
    61   31   58       1
    62   32   59       1
    63   33   60       1
@<TRIPOS>SUBSTRUCTURE
     1 MKH165      1 GROUP             4 A     MKH     0 **** MKH A 165
