@<TRIPOS>MOLECULE
1pl8_NAD_4_ligand
   70    74     1     0     0
SMALL
NO_CHARGES


@<TRIPOS>ATOM
     1 PA          90.2290    19.1290   -10.2510 P.3          1 NAD400   0.0000
     2 O1A         91.6090    18.8330   -10.5360 O.co2        1 NAD400   0.0000
     3 O2A         89.6960    20.4500   -10.8080 O.co2        1 NAD400  -1.0000
     4 O5B         89.9140    19.2090    -8.6680 O.3          1 NAD400   0.0000
     5 C5B         90.5920    18.3200    -7.7560 C.3          1 NAD400   0.0000
     6 C4B         90.8300    19.1200    -6.4980 C.3          1 NAD400   0.0000
     7 O4B         91.4650    18.2760    -5.5060 O.3          1 NAD400   0.0000
     8 C3B         91.7550    20.3400    -6.6660 C.3          1 NAD400   0.0000
     9 O3B         91.0710    21.5620    -6.3710 O.3          1 NAD400   0.0000
    10 C2B         92.9620    19.9400    -5.7900 C.3          1 NAD400   0.0000
    11 O2B         93.6170    21.1070    -5.2380 O.3          1 NAD400   0.0000
    12 C1B         92.2880    19.0730    -4.7420 C.3          1 NAD400   0.0000
    13 N9A         93.1400    18.1610    -3.9620 N.pl3        1 NAD400   0.0000
    14 C8A         94.1860    17.4020    -4.4060 C.2          1 NAD400   0.0000
    15 N7A         94.7310    16.6340    -3.4640 N.2          1 NAD400   0.0000
    16 C5A         93.9910    16.9170    -2.3340 C.ar         1 NAD400   0.0000
    17 C6A         94.0630    16.4160    -1.0160 C.ar         1 NAD400   0.0000
    18 N6A         94.9310    15.5320    -0.5700 N.pl3        1 NAD400   0.0000
    19 N1A         93.2300    16.9720    -0.0800 N.ar         1 NAD400   0.0000
    20 C2A         92.2730    17.8490    -0.5330 C.ar         1 NAD400   0.0000
    21 N3A         92.0860    18.3610    -1.7330 N.ar         1 NAD400   0.0000
    22 C4A         92.9920    17.8460    -2.6160 C.ar         1 NAD400   0.0000
    23 O3          89.3260    18.0030   -10.7230 O.3          1 NAD400   0.0000
    24 PN          87.7480    17.6940   -10.9480 P.3          1 NAD400   0.0000
    25 O1N         87.3320    18.1240   -12.2320 O.co2        1 NAD400   0.0000
    26 O2N         87.0040    18.4000    -9.7650 O.co2        1 NAD400  -1.0000
    27 O5D         87.9400    16.1670   -10.7640 O.3          1 NAD400   0.0000
    28 C5D         87.7850    15.5390    -9.4990 C.3          1 NAD400   0.0000
    29 C4D         88.1530    14.0970    -9.6900 C.3          1 NAD400   0.0000
    30 O4D         86.9860    13.3540   -10.1150 O.3          1 NAD400   0.0000
    31 C3D         89.2300    13.8030   -10.7420 C.3          1 NAD400   0.0000
    32 O3D         90.0950    12.7560   -10.2960 O.3          1 NAD400   0.0000
    33 C2D         88.3800    13.4020   -11.9540 C.3          1 NAD400   0.0000
    34 O2D         89.1580    12.6020   -12.8640 O.3          1 NAD400   0.0000
    35 C1D         87.2970    12.6300   -11.2690 C.3          1 NAD400   0.0000
    36 N1N         86.0720    12.4120   -12.0350 N.ar         1 NAD400   1.0000
    37 C2N         85.4580    11.1750   -11.9380 C.ar         1 NAD400   0.0000
    38 C3N         84.2940    10.8030   -12.7550 C.ar         1 NAD400   0.0000
    39 C7N         83.7560     9.4460   -12.5240 C.2          1 NAD400   0.0000
    40 O7N         82.7850     9.0930   -13.2100 O.2          1 NAD400   0.0000
    41 N7N         84.2800     8.6000   -11.6150 N.am         1 NAD400   0.0000
    42 C4N         83.7120    11.8350   -13.7020 C.ar         1 NAD400   0.0000
    43 C5N         84.3500    13.1840   -13.5290 C.ar         1 NAD400   0.0000
    44 C6N         85.4690    13.4210   -12.8580 C.ar         1 NAD400   0.0000
    45 H5B1        91.4620    18.0186    -8.1463 H            1 NAD400   0.0000
    46 H5B2        90.0213    17.5229    -7.5585 H            1 NAD400   0.0000
    47 H4B         89.9487    19.4300    -6.1413 H            1 NAD400   0.0000
    48 H3B         92.0578    20.3736    -7.6185 H            1 NAD400   0.0000
    49 H5          90.7436    21.5411    -5.4264 H            1 NAD400   0.0000
    50 H2B         93.6118    19.3976    -6.3225 H            1 NAD400   0.0000
    51 H7          92.9683    21.6176    -4.6737 H            1 NAD400   0.0000
    52 H1B         91.7409    19.6411    -4.1272 H            1 NAD400   0.0000
    53 H8A         94.5122    17.4214    -5.3511 H            1 NAD400   0.0000
    54 H6A1        94.9001    15.2391     0.3856 H            1 NAD400   0.0000
    55 H6A2        95.6211    15.1536    -1.1869 H            1 NAD400   0.0000
    56 H2A         91.6138    18.1457     0.1580 H            1 NAD400   0.0000
    57 H5D1        86.8372    15.6154    -9.1894 H            1 NAD400   0.0000
    58 H5D2        88.3907    15.9637    -8.8261 H            1 NAD400   0.0000
    59 H4D         88.4596    13.7296    -8.8119 H            1 NAD400   0.0000
    60 H3D         89.7565    14.6291   -10.9428 H            1 NAD400   0.0000
    61 H17         90.5404    13.0318    -9.4442 H            1 NAD400   0.0000
    62 H2D         88.0088    14.2087   -12.4138 H            1 NAD400   0.0000
    63 H19         88.7278    11.7056   -12.9712 H            1 NAD400   0.0000
    64 H1D         87.6642    11.7406   -10.9968 H            1 NAD400   0.0000
    65 H2N         85.8205    10.5085   -11.2866 H            1 NAD400   0.0000
    66 H7N1        83.8836     7.6902   -11.4919 H            1 NAD400   0.0000
    67 H7N2        85.0652     8.8821   -11.0637 H            1 NAD400   0.0000
    68 H4N         82.9883    11.6402   -14.3640 H            1 NAD400   0.0000
    69 H5N         83.8943    13.9661   -13.9540 H            1 NAD400   0.0000
    70 H6N         85.9009    14.3203   -12.9269 H            1 NAD400   0.0000
@<TRIPOS>BOND
     1    1    2      ar
     2    1    3      ar
     3    1    4       1
     4    1   23       1
     5    4    5       1
     6    5    6       1
     7    6    7       1
     8    6    8       1
     9    7   12       1
    10    8    9       1
    11    8   10       1
    12   10   11       1
    13   10   12       1
    14   12   13       1
    15   13   14       1
    16   13   22       1
    17   14   15       2
    18   15   16       1
    19   16   17      ar
    20   16   22      ar
    21   17   18       1
    22   17   19      ar
    23   19   20      ar
    24   20   21      ar
    25   21   22      ar
    26   23   24       1
    27   24   25      ar
    28   24   26      ar
    29   24   27       1
    30   27   28       1
    31   28   29       1
    32   29   30       1
    33   29   31       1
    34   30   35       1
    35   31   32       1
    36   31   33       1
    37   33   34       1
    38   33   35       1
    39   35   36       1
    40   36   37      ar
    41   36   44      ar
    42   37   38      ar
    43   38   39       1
    44   38   42      ar
    45   39   40       2
    46   39   41      am
    47   42   43      ar
    48   43   44      ar
    49   44   70       1
    50    5   45       1
    51    5   46       1
    52    6   47       1
    53    8   48       1
    54    9   49       1
    55   10   50       1
    56   11   51       1
    57   12   52       1
    58   14   53       1
    59   18   54       1
    60   18   55       1
    61   20   56       1
    62   43   69       1
    63   28   57       1
    64   28   58       1
    65   29   59       1
    66   31   60       1
    67   32   61       1
    68   33   62       1
    69   34   63       1
    70   35   64       1
    71   37   65       1
    72   41   66       1
    73   41   67       1
    74   42   68       1
@<TRIPOS>SUBSTRUCTURE
     1 NAD400      1 GROUP             4 D     NAD     0 **** NAD D 400
