@<TRIPOS>MOLECULE
3agl_A03_2_ligand
  128   130     1     0     0
SMALL
NO_CHARGES


@<TRIPOS>ATOM
     1 N1         -18.5840    54.7200   -33.2560 N.ar         1 A03351   0.0000
     2 C2         -19.7830    54.7640   -32.6690 C.ar         1 A03351   0.0000
     3 N3         -19.9320    55.1150   -31.3940 N.ar         1 A03351   0.0000
     4 C4         -18.8510    55.4460   -30.6580 C.ar         1 A03351   0.0000
     5 C5         -17.5880    55.4270   -31.2390 C.ar         1 A03351   0.0000
     6 C6         -17.4670    55.0520   -32.5790 C.ar         1 A03351   0.0000
     7 N6         -16.2710    55.0290   -33.1830 N.pl3        1 A03351   0.0000
     8 N7         -16.7120    55.7660   -30.2980 N.2          1 A03351   0.0000
     9 C8         -17.3940    55.9890   -29.1730 C.2          1 A03351   0.0000
    10 N9         -18.7000    55.7980   -29.3860 N.pl3        1 A03351   0.0000
    11 OAL        -17.0620    56.7910   -25.7710 O.2          1 A03351   0.0000
    12 OAN        -19.3720    54.1670   -25.1610 O.3          1 A03351   0.0000
    13 OAO        -21.2830    54.4660   -27.0720 O.3          1 A03351   0.0000
    14 OBR        -19.5610    56.9940   -27.3980 O.3          1 A03351   0.0000
    15 CBY        -18.1940    56.9770   -25.3270 C.2          1 A03351   0.0000
    16 CCG        -19.0350    54.9260   -26.3350 C.3          1 A03351   0.0000
    17 CCH        -19.9440    54.6290   -27.5320 C.3          1 A03351   0.0000
    18 CCI        -19.3810    56.3840   -26.0740 C.3          1 A03351   0.0000
    19 CCJ        -19.8310    55.9310   -28.3660 C.3          1 A03351   0.0000
    20 CBV        -14.7830    62.1610   -21.2790 C.2          1 A03351   0.0000
    21 OAI        -15.5470    62.9180   -20.6760 O.2          1 A03351   0.0000
    22 CBD        -14.6210    62.2970   -22.7990 C.3          1 A03351   0.0000
    23 CAV        -15.8940    61.8690   -23.5320 C.3          1 A03351   0.0000
    24 CAR        -15.9230    60.3390   -23.6190 C.3          1 A03351   0.0000
    25 CAU        -17.3370    59.7930   -23.7300 C.3          1 A03351   0.0000
    26 CBA        -17.3400    58.2850   -23.4480 C.3          1 A03351   0.0000
    27 NBN        -18.4360    57.6650   -24.2120 N.am         1 A03351   0.0000
    28 N          -14.0590    61.1840   -20.7120 N.am         1 A03351   0.0000
    29 CA         -14.0630    60.9040   -19.2520 C.3          1 A03351   0.0000
    30 CB         -13.0090    59.8550   -18.8760 C.3          1 A03351   0.0000
    31 C          -15.4410    60.4290   -18.7890 C.2          1 A03351   0.0000
    32 O          -16.0210    61.0120   -17.8820 O.2          1 A03351   0.0000
    33 CBW        -20.0400    55.7280   -15.6950 C.2          1 A03351   0.0000
    34 OAJ        -19.5960    54.5810   -15.7930 O.2          1 A03351   0.0000
    35 CBE        -19.1150    56.8580   -15.2160 C.3          1 A03351   0.0000
    36 CAW        -18.7820    57.8260   -16.3670 C.3          1 A03351   0.0000
    37 CAS        -17.2880    57.8640   -16.7030 C.3          1 A03351   0.0000
    38 CAT        -17.0270    57.5480   -18.1870 C.3          1 A03351   0.0000
    39 CAZ        -17.2410    58.7660   -19.1200 C.3          1 A03351   0.0000
    40 NBM        -15.9340    59.3800   -19.4510 N.am         1 A03351   0.0000
    41 NBP        -21.2950    56.0840   -16.0140 N.am         1 A03351   0.0000
    42 CCF        -22.2960    55.1020   -16.5000 C.3          1 A03351   0.0000
    43 CBG        -23.5870    55.7760   -16.9950 C.3          1 A03351   0.0000
    44 CAY        -23.4850    56.2200   -18.4660 C.3          1 A03351   0.0000
    45 CBC        -23.8070    55.0820   -19.4620 C.3          1 A03351   0.0000
    46 NBL        -22.8090    55.1320   -20.5450 N.pl3        1 A03351   1.0000
    47 CBT        -22.7290    54.2610   -21.5540 C.cat        1 A03351   0.0000
    48 NAC        -21.7610    54.4390   -22.4510 N.pl3        1 A03351   0.0000
    49 NAE        -23.5620    53.2220   -21.6700 N.pl3        1 A03351   0.0000
    50 CBZ        -22.6230    54.1040   -15.3690 C.2          1 A03351   0.0000
    51 OAM        -22.5980    54.4640   -14.1900 O.2          1 A03351   0.0000
    52 NBQ        -22.9340    52.8720   -15.7740 N.am         1 A03351   0.0000
    53 CCE        -23.1720    51.7700   -14.8190 C.3          1 A03351   0.0000
    54 CBF        -22.2680    50.6030   -15.2070 C.3          1 A03351   0.0000
    55 CAX        -20.8220    50.9040   -14.8130 C.3          1 A03351   0.0000
    56 CBB        -20.0330    49.6050   -14.7860 C.3          1 A03351   0.0000
    57 NBK        -20.0200    48.9610   -16.1190 N.pl3        1 A03351   1.0000
    58 CBS        -20.1420    47.6370   -16.2820 C.cat        1 A03351   0.0000
    59 NAB        -20.3580    46.8320   -15.2410 N.pl3        1 A03351   0.0000
    60 NAD        -20.0330    47.1110   -17.4980 N.pl3        1 A03351   0.0000
    61 CBU        -24.6340    51.2920   -14.7660 C.2          1 A03351   0.0000
    62 OAH        -25.4030    51.4620   -15.7080 O.2          1 A03351   0.0000
    63 NAF        -24.9610    50.6680   -13.6390 N.am         1 A03351   0.0000
    64 H1         -20.5936    54.5259   -33.2040 H            1 A03351   0.0000
    65 H2         -15.4480    55.2771   -32.6720 H            1 A03351   0.0000
    66 H3         -16.2015    54.7638   -34.1447 H            1 A03351   0.0000
    67 H4         -16.9883    56.2590   -28.2998 H            1 A03351   0.0000
    68 HAN        -19.2950    53.1904   -25.3619 H            1 A03351   0.0000
    69 HAO        -21.2735    54.1013   -26.1409 H            1 A03351   0.0000
    70 HCG        -18.0701    54.8177   -26.5744 H            1 A03351   0.0000
    71 HCH        -19.6297    53.8313   -28.0466 H            1 A03351   0.0000
    72 HCI        -20.2171    56.4596   -25.5307 H            1 A03351   0.0000
    73 HCJ        -20.6949    56.1102   -28.8367 H            1 A03351   0.0000
    74 HBD1       -13.8620    61.7192   -23.0991 H            1 A03351   0.0000
    75 HBD2       -14.4217    63.2513   -23.0216 H            1 A03351   0.0000
    76 HAV1       -15.8984    62.2582   -24.4532 H            1 A03351   0.0000
    77 HAV2       -16.6959    62.1924   -23.0297 H            1 A03351   0.0000
    78 HAR1       -15.4967    59.9622   -22.7966 H            1 A03351   0.0000
    79 HAR2       -15.4039    60.0530   -24.4245 H            1 A03351   0.0000
    80 HAU1       -17.6844    59.9581   -24.6531 H            1 A03351   0.0000
    81 HAU2       -17.9238    60.2555   -23.0654 H            1 A03351   0.0000
    82 HBA1       -17.4787    58.1255   -22.4706 H            1 A03351   0.0000
    83 HBA2       -16.4665    57.8880   -23.7299 H            1 A03351   0.0000
    84 HBN        -19.3772    57.7620   -23.8885 H            1 A03351   0.0000
    85 H22        -13.4869    60.6145   -21.3022 H            1 A03351   0.0000
    86 HA         -13.8460    61.7528   -18.7698 H            1 A03351   0.0000
    87 HB1        -13.0388    59.6910   -17.8900 H            1 A03351   0.0000
    88 HB2        -13.1997    59.0019   -19.3617 H            1 A03351   0.0000
    89 HB3        -12.1013    60.1881   -19.1312 H            1 A03351   0.0000
    90 HBE1       -18.2662    56.4601   -14.8678 H            1 A03351   0.0000
    91 HBE2       -19.5703    57.3649   -14.4841 H            1 A03351   0.0000
    92 HAW1       -19.0731    58.7459   -16.1042 H            1 A03351   0.0000
    93 HAW2       -19.2847    57.5373   -17.1818 H            1 A03351   0.0000
    94 HAS1       -16.8124    57.1883   -16.1398 H            1 A03351   0.0000
    95 HAS2       -16.9336    58.7766   -16.4993 H            1 A03351   0.0000
    96 HAT1       -17.6491    56.8181   -18.4702 H            1 A03351   0.0000
    97 HAT2       -16.0817    57.2364   -18.2836 H            1 A03351   0.0000
    98 HAZ1       -17.8174    59.4405   -18.6586 H            1 A03351   0.0000
    99 HAZ2       -17.6890    58.4648   -19.9618 H            1 A03351   0.0000
   100 HBM        -15.3989    58.9924   -20.2016 H            1 A03351   0.0000
   101 HBP        -21.5640    57.0426   -15.9210 H            1 A03351   0.0000
   102 HCF        -21.8942    54.5938   -17.2618 H            1 A03351   0.0000
   103 HBG1       -23.7685    56.5795   -16.4280 H            1 A03351   0.0000
   104 HBG2       -24.3431    55.1277   -16.9061 H            1 A03351   0.0000
   105 HAY1       -22.5538    56.5410   -18.6385 H            1 A03351   0.0000
   106 HAY2       -24.1294    56.9693   -18.6185 H            1 A03351   0.0000
   107 HBC1       -24.7243    55.2100   -19.8391 H            1 A03351   0.0000
   108 HBC2       -23.7585    54.1986   -18.9958 H            1 A03351   0.0000
   109 HAC1       -21.6699    53.8068   -23.2204 H            1 A03351   0.0000
   110 HAC2       -21.1252    55.2049   -22.3552 H            1 A03351   0.0000
   111 HAE1       -23.4702    52.5911   -22.4405 H            1 A03351   0.0000
   112 HAE2       -24.2769    53.0756   -20.9863 H            1 A03351   0.0000
   113 HBQ        -23.0084    52.6884   -16.7542 H            1 A03351   0.0000
   114 HCE        -22.9093    52.0820   -13.9060 H            1 A03351   0.0000
   115 HBF1       -22.3184    50.4602   -16.1955 H            1 A03351   0.0000
   116 HBF2       -22.5741    49.7764   -14.7347 H            1 A03351   0.0000
   117 HAX1       -20.8029    51.3263   -13.9067 H            1 A03351   0.0000
   118 HAX2       -20.4162    51.5285   -15.4804 H            1 A03351   0.0000
   119 HBB1       -20.4528    48.9816   -14.1263 H            1 A03351   0.0000
   120 HBB2       -19.0923    49.8000   -14.5084 H            1 A03351   0.0000
   121 HBK        -19.9160    49.5371   -16.9297 H            1 A03351   0.0000
   122 HAB1       -20.4465    45.8459   -15.3814 H            1 A03351   0.0000
   123 HAB2       -20.4315    47.2145   -14.3200 H            1 A03351   0.0000
   124 HAD1       -20.1232    46.1233   -17.6254 H            1 A03351   0.0000
   125 HAF1       -25.8900    50.3206   -13.5112 H            1 A03351   0.0000
   126 HAF2       -24.2781    50.5459   -12.9188 H            1 A03351   0.0000
   127 HBL        -22.1403    55.8752   -20.5226 H            1 A03351   0.0000
   128 HAD2       -19.8608    47.7031   -18.2853 H            1 A03351   0.0000
@<TRIPOS>BOND
     1    1    2      ar
     2    1    6      ar
     3    2    3      ar
     4    3    4      ar
     5    4    5      ar
     6    4   10       1
     7    5    6      ar
     8    5    8       1
     9    6    7       1
    10    8    9       2
    11    9   10       1
    12   10   19       1
    13   11   15       2
    14   12   16       1
    15   13   17       1
    16   14   18       1
    17   14   19       1
    18   15   18       1
    19   15   27      am
    20   16   17       1
    21   16   18       1
    22   17   19       1
    23   20   21       2
    24   20   22       1
    25   20   28      am
    26   22   23       1
    27   23   24       1
    28   24   25       1
    29   25   26       1
    30   26   27       1
    31   28   29       1
    32   29   30       1
    33   29   31       1
    34   31   32       2
    35   31   40      am
    36   33   34       2
    37   33   35       1
    38   33   41      am
    39   35   36       1
    40   36   37       1
    41   37   38       1
    42   38   39       1
    43   39   40       1
    44   41   42       1
    45   42   43       1
    46   42   50       1
    47   43   44       1
    48   44   45       1
    49   45   46       1
    50   46   47      ar
    51   47   48      ar
    52   47   49      ar
    53   50   51       2
    54   50   52      am
    55   52   53       1
    56   53   54       1
    57   53   61       1
    58   54   55       1
    59   55   56       1
    60   56   57       1
    61   57   58      ar
    62   58   59      ar
    63   58   60      ar
    64   61   62       2
    65   61   63      am
    66    2   64       1
    67    7   65       1
    68    7   66       1
    69    9   67       1
    70   12   68       1
    71   13   69       1
    72   16   70       1
    73   17   71       1
    74   18   72       1
    75   19   73       1
    76   22   74       1
    77   22   75       1
    78   23   76       1
    79   23   77       1
    80   24   78       1
    81   24   79       1
    82   25   80       1
    83   25   81       1
    84   26   82       1
    85   26   83       1
    86   27   84       1
    87   28   85       1
    88   29   86       1
    89   30   87       1
    90   30   88       1
    91   30   89       1
    92   35   90       1
    93   35   91       1
    94   36   92       1
    95   36   93       1
    96   37   94       1
    97   37   95       1
    98   38   96       1
    99   38   97       1
   100   39   98       1
   101   39   99       1
   102   40  100       1
   103   41  101       1
   104   42  102       1
   105   43  103       1
   106   43  104       1
   107   44  105       1
   108   44  106       1
   109   45  107       1
   110   45  108       1
   111   48  109       1
   112   48  110       1
   113   49  111       1
   114   49  112       1
   115   52  113       1
   116   53  114       1
   117   54  115       1
   118   54  116       1
   119   55  117       1
   120   55  118       1
   121   56  119       1
   122   56  120       1
   123   57  121       1
   124   59  122       1
   125   59  123       1
   126   60  124       1
   127   63  125       1
   128   63  126       1
   129   46  127       1
   130   60  128       1
@<TRIPOS>SUBSTRUCTURE
     1 A03351      1 GROUP             4 B     A03     0 **** A03 B 351
