@<TRIPOS>MOLECULE
2gqt_FAD_1_ligand
   84    89     1     0     0
SMALL
NO_CHARGES


@<TRIPOS>ATOM
     1 PA           0.4890     2.6100    -1.3410 P.3          1 FAD601   0.0000
     2 O1A          1.0300     1.7660    -2.4180 O.co2        1 FAD601   0.0000
     3 O2A          1.2150     3.8260    -0.9110 O.co2        1 FAD601  -1.0000
     4 O5B         -1.0020     3.0460    -1.6640 O.3          1 FAD601   0.0000
     5 C5B         -1.9450     2.0580    -2.0960 C.3          1 FAD601   0.0000
     6 C4B         -3.3500     2.6110    -2.0010 C.3          1 FAD601   0.0000
     7 O4B         -3.6530     2.8600    -0.6130 O.3          1 FAD601   0.0000
     8 C3B         -3.5560     3.9450    -2.7330 C.3          1 FAD601   0.0000
     9 O3B         -4.9080     3.9840    -3.1920 O.3          1 FAD601   0.0000
    10 C2B         -3.3460     4.9620    -1.6180 C.3          1 FAD601   0.0000
    11 O2B         -4.0100     6.1970    -1.8830 O.3          1 FAD601   0.0000
    12 C1B         -4.0160     4.2550    -0.4590 C.3          1 FAD601   0.0000
    13 N9A         -3.5810     4.6860     0.8860 N.pl3        1 FAD601   0.0000
    14 C8A         -2.3360     4.6320     1.3860 C.2          1 FAD601   0.0000
    15 N7A         -2.3530     5.0870     2.6410 N.2          1 FAD601   0.0000
    16 C5A         -3.6150     5.4040     2.9510 C.ar         1 FAD601   0.0000
    17 C6A         -4.2540     5.9370     4.0770 C.ar         1 FAD601   0.0000
    18 N6A         -3.6050     6.2240     5.2130 N.pl3        1 FAD601   0.0000
    19 N1A         -5.5850     6.1440     4.0200 N.ar         1 FAD601   0.0000
    20 C2A         -6.2830     5.8730     2.9080 C.ar         1 FAD601   0.0000
    21 N3A         -5.7240     5.3810     1.8060 N.ar         1 FAD601   0.0000
    22 C4A         -4.3960     5.1540     1.8240 C.ar         1 FAD601   0.0000
    23 N1          -0.2290    -7.0720    -1.0290 N.2          1 FAD601   0.0000
    24 C2          -0.9810    -8.0560    -0.4240 C.2          1 FAD601   0.0000
    25 O2          -2.1800    -7.8870    -0.2540 O.2          1 FAD601   0.0000
    26 N3          -0.3800    -9.2500    -0.0350 N.pl3        1 FAD601   0.0000
    27 C4           0.9790    -9.4760    -0.2150 C.2          1 FAD601   0.0000
    28 O4           1.4790   -10.5440     0.1530 O.2          1 FAD601   0.0000
    29 C4X          1.7330    -8.4710    -0.8180 C.2          1 FAD601   0.0000
    30 N5           3.0970    -8.6590    -1.0280 N.2          1 FAD601   0.0000
    31 C5X          3.8580    -7.6170    -1.5740 C.ar         1 FAD601   0.0000
    32 C6           5.2350    -7.7890    -1.7170 C.ar         1 FAD601   0.0000
    33 C7           6.0260    -6.7720    -2.2430 C.ar         1 FAD601   0.0000
    34 C7M          7.5390    -6.9800    -2.3790 C.3          1 FAD601   0.0000
    35 C8           5.4220    -5.5730    -2.6370 C.ar         1 FAD601   0.0000
    36 C8M          6.2760    -4.4410    -3.2250 C.3          1 FAD601   0.0000
    37 C9           4.0460    -5.4060    -2.5020 C.ar         1 FAD601   0.0000
    38 C9A          3.2490    -6.4200    -1.9710 C.ar         1 FAD601   0.0000
    39 N10          1.8600    -6.2640    -1.8280 N.pl3        1 FAD601   0.0000
    40 C10          1.1230    -7.2790    -1.2220 C.2          1 FAD601   0.0000
    41 C1'          1.1450    -5.0590    -2.3250 C.3          1 FAD601   0.0000
    42 C2'          1.1550    -3.9080    -1.3060 C.3          1 FAD601   0.0000
    43 O2'          2.2040    -4.0920    -0.3350 O.3          1 FAD601   0.0000
    44 C3'         -0.1740    -3.7770    -0.5600 C.3          1 FAD601   0.0000
    45 O3'         -1.2250    -3.4840    -1.4910 O.3          1 FAD601   0.0000
    46 C4'         -0.1080    -2.7050     0.5360 C.3          1 FAD601   0.0000
    47 O4'         -1.2890    -2.7780     1.3370 O.3          1 FAD601   0.0000
    48 C5'          0.0410    -1.2860    -0.0070 C.3          1 FAD601   0.0000
    49 O5'          0.2930    -0.4390     1.1150 O.3          1 FAD601   0.0000
    50 P            1.1680     0.8820     0.9220 P.3          1 FAD601   0.0000
    51 O1P          1.2030     1.5540     2.2350 O.co2        1 FAD601   0.0000
    52 O2P          2.4350     0.6010     0.2140 O.co2        1 FAD601  -1.0000
    53 O3P          0.1700     1.7050    -0.0300 O.3          1 FAD601   0.0000
    54 H5B1        -1.8672     1.2485    -1.5140 H            1 FAD601   0.0000
    55 H5B2        -1.7510     1.8067    -3.0443 H            1 FAD601   0.0000
    56 H4B         -3.9936     1.9359    -2.3615 H            1 FAD601   0.0000
    57 H3B         -2.9027     4.0675    -3.4801 H            1 FAD601   0.0000
    58 H5          -4.9601     3.5892    -4.1093 H            1 FAD601   0.0000
    59 H2B         -2.3727     5.1062    -1.4392 H            1 FAD601   0.0000
    60 H7          -3.5031     6.9462    -1.4566 H            1 FAD601   0.0000
    61 H1B         -5.0082     4.3526    -0.5365 H            1 FAD601   0.0000
    62 H8A         -1.5273     4.3042     0.8976 H            1 FAD601   0.0000
    63 H6A1        -4.1042     6.6038     5.9918 H            1 FAD601   0.0000
    64 H6A2        -2.6212     6.0585     5.2823 H            1 FAD601   0.0000
    65 H2A         -7.2675     6.0485     2.9070 H            1 FAD601   0.0000
    66 H13         -0.9410    -9.9635     0.3848 H            1 FAD601   0.0000
    67 H14          5.6578    -8.6515    -1.4388 H            1 FAD601   0.0000
    68 H7M1         7.9544    -6.1592    -2.7711 H            1 FAD601   0.0000
    69 H7M2         7.9338    -7.1551    -1.4771 H            1 FAD601   0.0000
    70 H7M3         7.7156    -7.7614    -2.9775 H            1 FAD601   0.0000
    71 H8M1         5.6891    -3.6635    -3.4509 H            1 FAD601   0.0000
    72 H8M2         6.9613    -4.1575    -2.5542 H            1 FAD601   0.0000
    73 H8M3         6.7340    -4.7646    -4.0530 H            1 FAD601   0.0000
    74 H21          3.6233    -4.5467    -2.7899 H            1 FAD601   0.0000
    75 H1'1         0.1960    -5.3066    -2.5201 H            1 FAD601   0.0000
    76 H1'2         1.5877    -4.7472    -3.1657 H            1 FAD601   0.0000
    77 H2'          1.3263    -3.0539    -1.7970 H            1 FAD601   0.0000
    78 H25          2.8339    -3.3163    -0.3738 H            1 FAD601   0.0000
    79 H3'         -0.3766    -4.6550    -0.1263 H            1 FAD601   0.0000
    80 H27         -1.9306    -2.9401    -1.0368 H            1 FAD601   0.0000
    81 H4'          0.6796    -2.9016     1.1199 H            1 FAD601   0.0000
    82 H29         -1.2499    -2.0807     2.0528 H            1 FAD601   0.0000
    83 H5'1        -0.7999    -1.0042    -0.4691 H            1 FAD601   0.0000
    84 H5'2         0.8055    -1.2420    -0.6501 H            1 FAD601   0.0000
@<TRIPOS>BOND
     1    1    2      ar
     2    1    3      ar
     3    1    4       1
     4    1   53       1
     5    4    5       1
     6    5    6       1
     7    6    7       1
     8    6    8       1
     9    7   12       1
    10    8    9       1
    11    8   10       1
    12   10   11       1
    13   10   12       1
    14   12   13       1
    15   13   14       1
    16   13   22       1
    17   14   15       2
    18   15   16       1
    19   16   17      ar
    20   16   22      ar
    21   17   18       1
    22   17   19      ar
    23   19   20      ar
    24   20   21      ar
    25   21   22      ar
    26   23   24       1
    27   23   40       2
    28   24   25       2
    29   24   26       1
    30   26   27       1
    31   27   28       2
    32   27   29       1
    33   29   30       2
    34   29   40       1
    35   30   31       1
    36   31   32      ar
    37   31   38      ar
    38   32   33      ar
    39   33   34       1
    40   33   35      ar
    41   35   36       1
    42   35   37      ar
    43   37   38      ar
    44   38   39       1
    45   39   40       1
    46   39   41       1
    47   41   42       1
    48   42   43       1
    49   42   44       1
    50   44   45       1
    51   44   46       1
    52   46   47       1
    53   46   48       1
    54   48   49       1
    55   49   50       1
    56   50   51      ar
    57   50   52      ar
    58   50   53       1
    59   48   84       1
    60    5   54       1
    61    5   55       1
    62    6   56       1
    63    8   57       1
    64    9   58       1
    65   10   59       1
    66   11   60       1
    67   12   61       1
    68   14   62       1
    69   18   63       1
    70   18   64       1
    71   20   65       1
    72   26   66       1
    73   32   67       1
    74   34   68       1
    75   34   69       1
    76   34   70       1
    77   36   71       1
    78   36   72       1
    79   36   73       1
    80   37   74       1
    81   41   75       1
    82   41   76       1
    83   42   77       1
    84   43   78       1
    85   44   79       1
    86   45   80       1
    87   46   81       1
    88   47   82       1
    89   48   83       1
@<TRIPOS>SUBSTRUCTURE
     1 FAD601      1 GROUP             4 A     FAD     0 **** FAD A 601
