@<TRIPOS>MOLECULE
1d7a_AIR_2_ligand
   31    32     1     0     0
SMALL
NO_CHARGES


@<TRIPOS>ATOM
     1 N1          31.6360    12.5210    18.1060 N.pl3        1 AIR350   0.0000
     2 C2          32.9340    11.7920    18.1430 C.2          1 AIR350   0.0000
     3 N3          33.9410    12.0900    17.2220 N.2          1 AIR350   0.0000
     4 C4          33.2960    13.0950    16.4980 C.2          1 AIR350   0.0000
     5 C5          31.9710    13.3700    16.9750 C.2          1 AIR350   0.0000
     6 N6          31.0710    14.3900    16.3980 N.pl3        1 AIR350   0.0000
     7 C1'         30.3730    12.3970    19.0270 C.3          1 AIR350   0.0000
     8 C2'         29.1230    11.9570    18.2480 C.3          1 AIR350   0.0000
     9 C3'         28.2830    11.2100    19.2900 C.3          1 AIR350   0.0000
    10 C4'         29.2210    11.0310    20.5030 C.3          1 AIR350   0.0000
    11 O4'         30.5360    11.3970    20.0420 O.3          1 AIR350   0.0000
    12 O2'         28.3910    13.0670    17.7350 O.3          1 AIR350   0.0000
    13 O3'         27.1160    11.9460    19.6640 O.3          1 AIR350   0.0000
    14 C5'         29.2490     9.6090    21.1060 C.3          1 AIR350   0.0000
    15 O5'         30.5820     9.0460    21.1360 O.3          1 AIR350   0.0000
    16 P           30.9200     7.5170    20.7540 P.3          1 AIR350   0.0000
    17 O6          29.9980     6.9970    19.6700 O.co2        1 AIR350   0.0000
    18 O7          30.7950     6.6110    21.9710 O.co2        1 AIR350  -1.0000
    19 O8          32.3290     7.3650    20.2220 O.co2        1 AIR350  -1.0000
    20 H1          33.0859    11.0837    18.8324 H            1 AIR350   0.0000
    21 H2          33.7146    13.5738    15.7263 H            1 AIR350   0.0000
    22 H3          31.3716    14.9380    15.6174 H            1 AIR350   0.0000
    23 H4          30.1613    14.5323    16.7881 H            1 AIR350   0.0000
    24 H1'         30.1953    13.2800    19.4614 H            1 AIR350   0.0000
    25 H2'         29.3794    11.3394    17.5044 H            1 AIR350   0.0000
    26 H3'         28.0180    10.3146    18.9322 H            1 AIR350   0.0000
    27 H4'         28.9439    11.6739    21.2170 H            1 AIR350   0.0000
    28 H9          27.5892    12.7362    17.2373 H            1 AIR350   0.0000
    29 H10         26.3002    11.4095    19.4482 H            1 AIR350   0.0000
    30 H5'1        28.6625     9.0154    20.5550 H            1 AIR350   0.0000
    31 H5'2        28.8971     9.6502    22.0411 H            1 AIR350   0.0000
@<TRIPOS>BOND
     1    1    2       1
     2    1    5       1
     3    1    7       1
     4    2    3       2
     5    3    4       1
     6    4    5       2
     7    5    6       1
     8    7    8       1
     9    7   11       1
    10    8    9       1
    11    8   12       1
    12    9   10       1
    13    9   13       1
    14   10   11       1
    15   10   14       1
    16   14   15       1
    17   15   16       1
    18   16   17      ar
    19   16   18      ar
    20   16   19      ar
    21    2   20       1
    22    4   21       1
    23    6   22       1
    24    6   23       1
    25    7   24       1
    26    8   25       1
    27    9   26       1
    28   10   27       1
    29   12   28       1
    30   13   29       1
    31   14   30       1
    32   14   31       1
@<TRIPOS>SUBSTRUCTURE
     1 AIR350      1 GROUP             4 B     AIR     0 **** AIR B 350
