@<TRIPOS>MOLECULE
3gg0_FMN_4_ligand
   50    52     1     0     0
SMALL
NO_CHARGES


@<TRIPOS>ATOM
     1 N1          18.9890    -7.9020   -10.6760 N.2          1 FMN504   0.0000
     2 C2          18.6060    -8.8760    -9.7820 C.2          1 FMN504   0.0000
     3 O2          19.3980    -9.2480    -8.9210 O.2          1 FMN504   0.0000
     4 N3          17.3300    -9.4140    -9.8420 N.pl3        1 FMN504   0.0000
     5 C4          16.4440    -8.9860   -10.8080 C.2          1 FMN504   0.0000
     6 O4          15.3290    -9.4870   -10.8750 O.2          1 FMN504   0.0000
     7 C4A         16.8300    -8.0070   -11.7160 C.2          1 FMN504   0.0000
     8 N5          15.9500    -7.5710   -12.6880 N.2          1 FMN504   0.0000
     9 C5A         16.3450    -6.5950   -13.5880 C.ar         1 FMN504   0.0000
    10 C6          15.4600    -6.1580   -14.5660 C.ar         1 FMN504   0.0000
    11 C7          15.8490    -5.1790   -15.4730 C.ar         1 FMN504   0.0000
    12 C7M         14.8410    -4.6420   -16.4420 C.3          1 FMN504   0.0000
    13 C8          17.1330    -4.6290   -15.4040 C.ar         1 FMN504   0.0000
    14 C8M         17.4840    -3.4160   -16.2150 C.3          1 FMN504   0.0000
    15 C9          18.0170    -5.0670   -14.4220 C.ar         1 FMN504   0.0000
    16 C9A         17.6260    -6.0510   -13.5160 C.ar         1 FMN504   0.0000
    17 N10         18.5040    -6.4830   -12.5420 N.pl3        1 FMN504   0.0000
    18 C10         18.1110    -7.4640   -11.6460 C.2          1 FMN504   0.0000
    19 C1'         19.9390    -6.0430   -12.5880 C.3          1 FMN504   0.0000
    20 C2'         20.2170    -5.0160   -11.4920 C.3          1 FMN504   0.0000
    21 O2'         19.7810    -3.7490   -11.9170 O.3          1 FMN504   0.0000
    22 C3'         21.7040    -4.9580   -11.1640 C.3          1 FMN504   0.0000
    23 O3'         22.4400    -4.7840   -12.3530 O.3          1 FMN504   0.0000
    24 C4'         22.1500    -6.2330   -10.4570 C.3          1 FMN504   0.0000
    25 O4'         21.9820    -6.0720    -9.0680 O.3          1 FMN504   0.0000
    26 C5'         23.6050    -6.5750   -10.7730 C.3          1 FMN504   0.0000
    27 O5'         24.4520    -6.0780    -9.7580 O.3          1 FMN504   0.0000
    28 P           25.6730    -6.9720    -9.2000 P.3          1 FMN504   0.0000
    29 O1P         26.9740    -6.2760    -9.5490 O.co2        1 FMN504   0.0000
    30 O2P         25.5570    -7.1160    -7.6980 O.co2        1 FMN504  -1.0000
    31 O3P         25.6290    -8.3440    -9.8460 O.co2        1 FMN504  -1.0000
    32 H1          17.0516   -10.1135    -9.1838 H            1 FMN504   0.0000
    33 H2          14.5409    -6.5487   -14.6175 H            1 FMN504   0.0000
    34 H7M1        15.2717    -3.9507   -17.0222 H            1 FMN504   0.0000
    35 H7M2        14.4963    -5.3878   -17.0120 H            1 FMN504   0.0000
    36 H7M3        14.0820    -4.2289   -15.9388 H            1 FMN504   0.0000
    37 H8M1        18.4361    -3.1637   -16.0424 H            1 FMN504   0.0000
    38 H8M2        17.3638    -3.6186   -17.1869 H            1 FMN504   0.0000
    39 H8M3        16.8860    -2.6575   -15.9562 H            1 FMN504   0.0000
    40 H9          18.9351    -4.6745   -14.3665 H            1 FMN504   0.0000
    41 H1'1        20.1293    -5.6327   -13.4799 H            1 FMN504   0.0000
    42 H1'2        20.5315    -6.8372   -12.4532 H            1 FMN504   0.0000
    43 H2'         19.7121    -5.2744   -10.6684 H            1 FMN504   0.0000
    44 H13         20.2710    -3.4897   -12.7493 H            1 FMN504   0.0000
    45 H3'         21.8726    -4.1778   -10.5617 H            1 FMN504   0.0000
    46 H15         23.2792    -4.2777   -12.1545 H            1 FMN504   0.0000
    47 H4'         21.5704    -6.9880   -10.7637 H            1 FMN504   0.0000
    48 H17         21.0185    -5.8952    -8.8671 H            1 FMN504   0.0000
    49 H5'1        23.8593    -6.1622   -11.6476 H            1 FMN504   0.0000
    50 H5'2        23.7061    -7.5682   -10.8313 H            1 FMN504   0.0000
@<TRIPOS>BOND
     1    1    2       1
     2    1   18       2
     3    2    3       2
     4    2    4       1
     5    4    5       1
     6    5    6       2
     7    5    7       1
     8    7    8       2
     9    7   18       1
    10    8    9       1
    11    9   10      ar
    12    9   16      ar
    13   10   11      ar
    14   11   12       1
    15   11   13      ar
    16   13   14       1
    17   13   15      ar
    18   15   16      ar
    19   16   17       1
    20   17   18       1
    21   17   19       1
    22   19   20       1
    23   20   21       1
    24   20   22       1
    25   22   23       1
    26   22   24       1
    27   24   25       1
    28   24   26       1
    29   26   27       1
    30   27   28       1
    31   28   29      ar
    32   28   30      ar
    33   28   31      ar
    34    4   32       1
    35   10   33       1
    36   12   34       1
    37   12   35       1
    38   12   36       1
    39   14   37       1
    40   14   38       1
    41   14   39       1
    42   15   40       1
    43   19   41       1
    44   19   42       1
    45   20   43       1
    46   21   44       1
    47   22   45       1
    48   23   46       1
    49   24   47       1
    50   25   48       1
    51   26   49       1
    52   26   50       1
@<TRIPOS>SUBSTRUCTURE
     1 FMN504      1 GROUP             4 B     FMN     0 **** FMN B 504
