@<TRIPOS>MOLECULE
3mje_NDP_2_ligand
   73    77     1     0     0
SMALL
NO_CHARGES


@<TRIPOS>ATOM
     1 PA         -22.4100   -31.9640    24.2840 P.3          1 NDP476   0.0000
     2 O1A        -23.3490   -32.8570    23.4570 O.co2        1 NDP476   0.0000
     3 O2A        -22.9160   -31.6600    25.7310 O.co2        1 NDP476  -1.0000
     4 O5B        -20.8990   -32.5210    24.2140 O.3          1 NDP476   0.0000
     5 C5B        -20.0000   -32.0320    25.2160 C.3          1 NDP476   0.0000
     6 C4B        -19.0680   -33.1510    25.5140 C.3          1 NDP476   0.0000
     7 O4B        -17.9330   -32.6860    26.2030 O.3          1 NDP476   0.0000
     8 C3B        -19.7130   -34.3280    26.1010 C.3          1 NDP476   0.0000
     9 O3B        -19.1280   -35.4360    25.4280 O.3          1 NDP476   0.0000
    10 C2B        -19.1840   -34.1800    27.5400 C.3          1 NDP476   0.0000
    11 O2B        -19.1710   -35.4960    28.0670 O.3          1 NDP476   0.0000
    12 C1B        -17.7640   -33.6720    27.2820 C.3          1 NDP476   0.0000
    13 N9A        -17.1030   -32.9950    28.3980 N.pl3        1 NDP476   0.0000
    14 C8A        -17.6080   -32.0430    29.2290 C.2          1 NDP476   0.0000
    15 N7A        -16.6860   -31.6480    30.1400 N.2          1 NDP476   0.0000
    16 C5A        -15.5690   -32.4490    29.9660 C.ar         1 NDP476   0.0000
    17 C6A        -14.3180   -32.5700    30.5710 C.ar         1 NDP476   0.0000
    18 N6A        -13.9790   -31.8020    31.6460 N.pl3        1 NDP476   0.0000
    19 N1A        -13.4970   -33.5000    30.0190 N.ar         1 NDP476   0.0000
    20 C2A        -13.8000   -34.2910    28.9350 C.ar         1 NDP476   0.0000
    21 N3A        -15.0190   -34.2260    28.3220 N.ar         1 NDP476   0.0000
    22 C4A        -15.8670   -33.2720    28.8750 C.ar         1 NDP476   0.0000
    23 O3         -22.2750   -30.5330    23.5800 O.3          1 NDP476   0.0000
    24 PN         -22.0360   -30.1930    22.0340 P.3          1 NDP476   0.0000
    25 O1N        -23.2880   -29.3880    21.6310 O.co2        1 NDP476   0.0000
    26 O2N        -21.6380   -31.3830    21.2900 O.co2        1 NDP476  -1.0000
    27 O5D        -20.8500   -29.1120    22.0890 O.3          1 NDP476   0.0000
    28 C5D        -19.5250   -29.5050    21.6020 C.3          1 NDP476   0.0000
    29 C4D        -18.6650   -28.2750    21.8520 C.3          1 NDP476   0.0000
    30 O4D        -19.0940   -27.2720    20.9100 O.3          1 NDP476   0.0000
    31 C3D        -18.6600   -27.7400    23.3090 C.3          1 NDP476   0.0000
    32 O3D        -17.3380   -27.3710    23.6610 O.3          1 NDP476   0.0000
    33 C2D        -19.4860   -26.4920    23.2120 C.3          1 NDP476   0.0000
    34 O2D        -18.9460   -25.4690    24.0490 O.3          1 NDP476   0.0000
    35 C1D        -19.3710   -26.0790    21.7090 C.3          1 NDP476   0.0000
    36 N1N        -20.5540   -25.3820    21.1730 N.ar         1 NDP476   1.0000
    37 C2N        -21.7370   -26.0330    20.9650 C.ar         1 NDP476   0.0000
    38 C3N        -22.8040   -25.3540    20.4230 C.ar         1 NDP476   0.0000
    39 C7N        -24.1200   -26.0250    20.2070 C.2          1 NDP476   0.0000
    40 O7N        -24.9960   -25.2880    19.7170 O.2          1 NDP476   0.0000
    41 N7N        -24.2980   -27.3380    20.4730 N.am         1 NDP476   0.0000
    42 C4N        -22.6220   -23.9670    20.1010 C.ar         1 NDP476   0.0000
    43 C5N        -21.3650   -23.3310    20.2660 C.ar         1 NDP476   0.0000
    44 C6N        -20.3420   -24.0610    20.8540 C.ar         1 NDP476   0.0000
    45 P2B        -19.0000   -35.7930    29.6720 P.3          1 NDP476   0.0000
    46 O1X        -19.2060   -37.3350    29.7040 O.co2        1 NDP476   0.0000
    47 O2X        -17.6500   -35.3040    30.1510 O.co2        1 NDP476  -1.0000
    48 O3X        -20.0650   -34.9550    30.4210 O.co2        1 NDP476  -1.0000
    49 H5B1       -20.5053   -31.7725    26.0390 H            1 NDP476   0.0000
    50 H5B2       -19.4940   -31.2409    24.8722 H            1 NDP476   0.0000
    51 H4B        -18.7287   -33.4543    24.6236 H            1 NDP476   0.0000
    52 H3B        -20.7109   -34.3069    26.0398 H            1 NDP476   0.0000
    53 H5         -18.3158   -35.7381    25.9270 H            1 NDP476   0.0000
    54 H2B        -19.7285   -33.5470    28.0904 H            1 NDP476   0.0000
    55 H1B        -17.1913   -34.4261    26.9605 H            1 NDP476   0.0000
    56 H8A        -18.5389   -31.6818    29.1744 H            1 NDP476   0.0000
    57 H6A1       -13.0777   -31.9018    32.0675 H            1 NDP476   0.0000
    58 H6A2       -14.6318   -31.1391    32.0127 H            1 NDP476   0.0000
    59 H2A        -13.1120   -34.9283    28.5878 H            1 NDP476   0.0000
    60 H5D1       -19.5552   -29.7261    20.6272 H            1 NDP476   0.0000
    61 H5D2       -19.1774   -30.2920    22.1117 H            1 NDP476   0.0000
    62 H4D        -17.7230   -28.5179    21.6204 H            1 NDP476   0.0000
    63 H3D        -19.0497   -28.3991    23.9523 H            1 NDP476   0.0000
    64 H16        -17.0399   -27.9104    24.4485 H            1 NDP476   0.0000
    65 H2D        -20.4379   -26.6796    23.4542 H            1 NDP476   0.0000
    66 H18        -19.5075   -24.6450    23.9728 H            1 NDP476   0.0000
    67 H1D        -18.5878   -25.4636    21.6205 H            1 NDP476   0.0000
    68 H2N        -21.8271   -26.9994    21.2058 H            1 NDP476   0.0000
    69 H7N1       -25.1901   -27.7628    20.3193 H            1 NDP476   0.0000
    70 H7N2       -23.5376   -27.8847    20.8235 H            1 NDP476   0.0000
    71 H4N        -23.3967   -23.4387    19.7535 H            1 NDP476   0.0000
    72 H5N        -21.2208   -22.3873    19.9683 H            1 NDP476   0.0000
    73 H6N        -19.4594   -23.6310    21.0440 H            1 NDP476   0.0000
@<TRIPOS>BOND
     1    1    2      ar
     2    1    3      ar
     3    1    4       1
     4    1   23       1
     5    4    5       1
     6    5    6       1
     7    6    7       1
     8    6    8       1
     9    7   12       1
    10    8    9       1
    11    8   10       1
    12   10   11       1
    13   10   12       1
    14   11   45       1
    15   12   13       1
    16   13   14       1
    17   13   22       1
    18   14   15       2
    19   15   16       1
    20   16   17      ar
    21   16   22      ar
    22   17   18       1
    23   17   19      ar
    24   19   20      ar
    25   20   21      ar
    26   21   22      ar
    27   23   24       1
    28   24   25      ar
    29   24   26      ar
    30   24   27       1
    31   27   28       1
    32   28   29       1
    33   29   30       1
    34   29   31       1
    35   30   35       1
    36   31   32       1
    37   31   33       1
    38   33   34       1
    39   33   35       1
    40   35   36       1
    41   36   37      ar
    42   36   44      ar
    43   37   38      ar
    44   38   39       1
    45   38   42      ar
    46   39   40       2
    47   39   41      am
    48   42   43      ar
    49   43   44      ar
    50   45   46      ar
    51   45   47      ar
    52   45   48      ar
    53   43   72       1
    54    5   49       1
    55    5   50       1
    56    6   51       1
    57    8   52       1
    58    9   53       1
    59   10   54       1
    60   12   55       1
    61   14   56       1
    62   18   57       1
    63   18   58       1
    64   20   59       1
    65   44   73       1
    66   28   60       1
    67   28   61       1
    68   29   62       1
    69   31   63       1
    70   32   64       1
    71   33   65       1
    72   34   66       1
    73   35   67       1
    74   37   68       1
    75   41   69       1
    76   41   70       1
    77   42   71       1
@<TRIPOS>SUBSTRUCTURE
     1 NDP476      1 GROUP             4 B     NDP     0 **** NDP B 476
