@<TRIPOS>MOLECULE
2uz3_TTP_4_ligand
   42    43     1     0     0
SMALL
NO_CHARGES


@<TRIPOS>ATOM
     1 PA          16.2420    54.6490    46.2580 P.3          1 TTP4220   0.0000
     2 O1A         17.3440    55.2380    45.4070 O.co2        1 TTP4220   0.0000
     3 O2A         16.3260    53.1470    46.3700 O.co2        1 TTP4220  -1.0000
     4 O3A         16.4030    55.2690    47.7230 O.3          1 TTP4220   0.0000
     5 PB          17.8560    55.6420    48.2500 P.3          1 TTP4220   0.0000
     6 O1B         18.3760    56.8580    47.5200 O.co2        1 TTP4220   0.0000
     7 O2B         17.7370    55.8390    49.7540 O.co2        1 TTP4220  -1.0000
     8 O3B         18.6390    54.3010    47.8380 O.3          1 TTP4220   0.0000
     9 PG          20.1870    54.2150    47.4640 P.3          1 TTP4220   0.0000
    10 O1G         20.3960    54.4330    45.9950 O.co2        1 TTP4220   0.0000
    11 O2G         20.5900    52.8280    47.8910 O.co2        1 TTP4220  -1.0000
    12 O3G         20.9540    55.2410    48.2490 O.co2        1 TTP4220  -1.0000
    13 O5'         14.7550    55.2010    45.8790 O.3          1 TTP4220   0.0000
    14 C5'         13.5500    54.7800    46.5570 C.3          1 TTP4220   0.0000
    15 C4'         12.2900    55.4290    45.9560 C.3          1 TTP4220   0.0000
    16 O4'         11.2490    54.4570    45.8420 O.3          1 TTP4220   0.0000
    17 C3'         11.7220    56.5260    46.8520 C.3          1 TTP4220   0.0000
    18 O3'         11.2740    57.5950    46.0320 O.3          1 TTP4220   0.0000
    19 C2'         10.5200    55.9350    47.5710 C.3          1 TTP4220   0.0000
    20 C1'         10.0890    54.8600    46.5890 C.3          1 TTP4220   0.0000
    21 N1           9.4850    53.6830    47.2230 N.pl3        1 TTP4220   0.0000
    22 C2           8.1580    53.3570    46.8440 C.2          1 TTP4220   0.0000
    23 O2           7.5590    54.0830    46.0130 O.2          1 TTP4220   0.0000
    24 N3           7.5490    52.2750    47.3510 N.pl3        1 TTP4220   0.0000
    25 C4           8.1540    51.4890    48.2410 C.2          1 TTP4220   0.0000
    26 O4           7.5560    50.4920    48.7190 O.2          1 TTP4220   0.0000
    27 C5           9.5370    51.8090    48.6560 C.2          1 TTP4220   0.0000
    28 C5M         10.2500    50.9310    49.6580 C.3          1 TTP4220   0.0000
    29 C6          10.1530    52.9220    48.0990 C.2          1 TTP4220   0.0000
    30 H5'1        13.6162    55.0367    47.5212 H            1 TTP4220   0.0000
    31 H5'2        13.4680    53.7862    46.4815 H            1 TTP4220   0.0000
    32 H4'         12.5013    55.8052    45.0539 H            1 TTP4220   0.0000
    33 H3'         12.4086    56.8426    47.5066 H            1 TTP4220   0.0000
    34 H5          12.0425    57.9529    45.5016 H            1 TTP4220   0.0000
    35 H2'1         9.8016    56.6174    47.7060 H            1 TTP4220   0.0000
    36 H2'2        10.7775    55.5428    48.4541 H            1 TTP4220   0.0000
    37 H1'          9.4245    55.2561    45.9553 H            1 TTP4220   0.0000
    38 H9           6.6201    52.0531    47.0545 H            1 TTP4220   0.0000
    39 H5M1        11.1685    51.2908    49.8224 H            1 TTP4220   0.0000
    40 H5M2         9.7374    50.9209    50.5166 H            1 TTP4220   0.0000
    41 H5M3        10.3160    50.0003    49.2982 H            1 TTP4220   0.0000
    42 H13         11.0923    53.1543    48.3513 H            1 TTP4220   0.0000
@<TRIPOS>BOND
     1    1    2      ar
     2    1    3      ar
     3    1    4       1
     4    1   13       1
     5    4    5       1
     6    5    6      ar
     7    5    7      ar
     8    5    8       1
     9    8    9       1
    10    9   10      ar
    11    9   11      ar
    12    9   12      ar
    13   13   14       1
    14   14   15       1
    15   15   16       1
    16   15   17       1
    17   16   20       1
    18   17   18       1
    19   17   19       1
    20   19   20       1
    21   20   21       1
    22   21   22       1
    23   21   29       1
    24   22   23       2
    25   22   24       1
    26   24   25       1
    27   25   26       2
    28   25   27       1
    29   27   28       1
    30   27   29       2
    31   29   42       1
    32   28   41       1
    33   28   40       1
    34   28   39       1
    35   14   30       1
    36   14   31       1
    37   15   32       1
    38   17   33       1
    39   18   34       1
    40   19   35       1
    41   19   36       1
    42   20   37       1
    43   24   38       1
@<TRIPOS>SUBSTRUCTURE
     1 TTP4220     1 GROUP             4 D     TTP     0 **** TTP D4220
