@<TRIPOS>MOLECULE
5a3c_NAD_1_ligand
   70    74     1     0     0
SMALL
NO_CHARGES


@<TRIPOS>ATOM
     1 PA          10.9450    18.2500    37.5320 P.3          1 NAD1294   0.0000
     2 O1A         10.5490    19.0140    36.3170 O.co2        1 NAD1294   0.0000
     3 O2A         10.0630    17.2420    38.2000 O.co2        1 NAD1294  -1.0000
     4 O5B         11.3720    19.2970    38.6400 O.3          1 NAD1294   0.0000
     5 C5B         12.2660    20.3620    38.3080 C.3          1 NAD1294   0.0000
     6 C4B         12.4410    21.2090    39.5560 C.3          1 NAD1294   0.0000
     7 O4B         13.3940    22.2480    39.3300 O.3          1 NAD1294   0.0000
     8 C3B         11.1180    21.8700    39.9540 C.3          1 NAD1294   0.0000
     9 O3B         10.8830    21.6220    41.3400 O.3          1 NAD1294   0.0000
    10 C2B         11.3310    23.3460    39.6750 C.3          1 NAD1294   0.0000
    11 O2B         10.6950    24.1830    40.6400 O.3          1 NAD1294   0.0000
    12 C1B         12.8360    23.4870    39.7790 C.3          1 NAD1294   0.0000
    13 N9A         13.4180    24.5710    38.9680 N.pl3        1 NAD1294   0.0000
    14 C8A         13.2680    24.7470    37.6450 C.2          1 NAD1294   0.0000
    15 N7A         13.9710    25.8250    37.2340 N.2          1 NAD1294   0.0000
    16 C5A         14.5910    26.3340    38.3230 C.ar         1 NAD1294   0.0000
    17 C6A         15.4920    27.4670    38.6120 C.ar         1 NAD1294   0.0000
    18 N6A         15.8820    28.2900    37.6170 N.pl3        1 NAD1294   0.0000
    19 N1A         15.9240    27.6600    39.8770 N.ar         1 NAD1294   0.0000
    20 C2A         15.5370    26.8490    40.8750 C.ar         1 NAD1294   0.0000
    21 N3A         14.7090    25.7910    40.6840 N.ar         1 NAD1294   0.0000
    22 C4A         14.2200    25.4960    39.4580 C.ar         1 NAD1294   0.0000
    23 O3          12.3830    17.5960    37.1670 O.3          1 NAD1294   0.0000
    24 PN          13.0000    16.1590    37.6210 P.3          1 NAD1294   0.0000
    25 O1N         12.8600    15.9570    39.1090 O.co2        1 NAD1294   0.0000
    26 O2N         14.3970    16.1330    37.0460 O.co2        1 NAD1294  -1.0000
    27 O5D         12.1280    15.0370    36.8640 O.3          1 NAD1294   0.0000
    28 C5D         11.9900    15.0140    35.4490 C.3          1 NAD1294   0.0000
    29 C4D         11.8850    13.5790    34.9800 C.3          1 NAD1294   0.0000
    30 O4D         11.6760    13.5660    33.5690 O.3          1 NAD1294   0.0000
    31 C3D         13.1810    12.8420    35.2250 C.3          1 NAD1294   0.0000
    32 O3D         12.9030    11.5050    35.6530 O.3          1 NAD1294   0.0000
    33 C2D         13.9040    12.8980    33.8850 C.3          1 NAD1294   0.0000
    34 O2D         14.3600    11.5990    33.4840 O.3          1 NAD1294   0.0000
    35 C1D         12.9190    13.4610    32.8600 C.3          1 NAD1294   0.0000
    36 N1N         13.3580    14.7570    32.2720 N.ar         1 NAD1294   1.0000
    37 C2N         14.6480    14.9360    31.8790 C.ar         1 NAD1294   0.0000
    38 C3N         15.0890    16.1440    31.3230 C.ar         1 NAD1294   0.0000
    39 C7N         16.5390    16.3320    30.9100 C.2          1 NAD1294   0.0000
    40 O7N         17.2160    15.3670    30.5800 O.2          1 NAD1294   0.0000
    41 N7N         17.0870    17.5570    30.9270 N.am         1 NAD1294   0.0000
    42 C4N         14.1560    17.1710    31.1570 C.ar         1 NAD1294   0.0000
    43 C5N         12.8350    16.9670    31.5550 C.ar         1 NAD1294   0.0000
    44 C6N         12.4600    15.7470    32.1060 C.ar         1 NAD1294   0.0000
    45 H5B1        11.8800    20.9155    37.5700 H            1 NAD1294   0.0000
    46 H5B2        13.1486    19.9908    38.0197 H            1 NAD1294   0.0000
    47 H4B         12.7580    20.6287    40.3061 H            1 NAD1294   0.0000
    48 H3B         10.3658    21.5125    39.4004 H            1 NAD1294   0.0000
    49 H5          10.0246    21.1206    41.4480 H            1 NAD1294   0.0000
    50 H2B         11.0206    23.5764    38.7527 H            1 NAD1294   0.0000
    51 H7          11.0645    23.9853    41.5479 H            1 NAD1294   0.0000
    52 H1B         13.0845    23.6278    40.7373 H            1 NAD1294   0.0000
    53 H8A         12.7153    24.1638    37.0496 H            1 NAD1294   0.0000
    54 H6A1        16.4924    29.0574    37.8132 H            1 NAD1294   0.0000
    55 H6A2        15.5608    28.1327    36.6832 H            1 NAD1294   0.0000
    56 H2A         15.8735    27.0327    41.7986 H            1 NAD1294   0.0000
    57 H5D1        12.7882    15.4453    35.0285 H            1 NAD1294   0.0000
    58 H5D2        11.1642    15.5127    35.1858 H            1 NAD1294   0.0000
    59 H4D         11.1305    13.1168    35.4460 H            1 NAD1294   0.0000
    60 H3D         13.7174    13.3183    35.9218 H            1 NAD1294   0.0000
    61 H17         12.0401    11.1989    35.2508 H            1 NAD1294   0.0000
    62 H2D         14.6886    13.5135    33.9599 H            1 NAD1294   0.0000
    63 H19         15.2827    11.4458    33.8377 H            1 NAD1294   0.0000
    64 H1D         12.8106    12.7953    32.1216 H            1 NAD1294   0.0000
    65 H2N         15.2991    14.1851    31.9899 H            1 NAD1294   0.0000
    66 H7N1        18.0413    17.6817    30.6553 H            1 NAD1294   0.0000
    67 H7N2        16.5410    18.3451    31.2113 H            1 NAD1294   0.0000
    68 H4N         14.4330    18.0444    30.7564 H            1 NAD1294   0.0000
    69 H5N         12.1596    17.6961    31.4444 H            1 NAD1294   0.0000
    70 H6N         11.5101    15.6024    32.3830 H            1 NAD1294   0.0000
@<TRIPOS>BOND
     1    1    2      ar
     2    1    3      ar
     3    1    4       1
     4    1   23       1
     5    4    5       1
     6    5    6       1
     7    6    7       1
     8    6    8       1
     9    7   12       1
    10    8    9       1
    11    8   10       1
    12   10   11       1
    13   10   12       1
    14   12   13       1
    15   13   14       1
    16   13   22       1
    17   14   15       2
    18   15   16       1
    19   16   17      ar
    20   16   22      ar
    21   17   18       1
    22   17   19      ar
    23   19   20      ar
    24   20   21      ar
    25   21   22      ar
    26   23   24       1
    27   24   25      ar
    28   24   26      ar
    29   24   27       1
    30   27   28       1
    31   28   29       1
    32   29   30       1
    33   29   31       1
    34   30   35       1
    35   31   32       1
    36   31   33       1
    37   33   34       1
    38   33   35       1
    39   35   36       1
    40   36   37      ar
    41   36   44      ar
    42   37   38      ar
    43   38   39       1
    44   38   42      ar
    45   39   40       2
    46   39   41      am
    47   42   43      ar
    48   43   44      ar
    49   44   70       1
    50    5   45       1
    51    5   46       1
    52    6   47       1
    53    8   48       1
    54    9   49       1
    55   10   50       1
    56   11   51       1
    57   12   52       1
    58   14   53       1
    59   18   54       1
    60   18   55       1
    61   20   56       1
    62   43   69       1
    63   28   57       1
    64   28   58       1
    65   29   59       1
    66   31   60       1
    67   32   61       1
    68   33   62       1
    69   34   63       1
    70   35   64       1
    71   37   65       1
    72   41   66       1
    73   41   67       1
    74   42   68       1
@<TRIPOS>SUBSTRUCTURE
     1 NAD1294     1 GROUP             4 A     NAD     0 **** NAD A1294
