@<TRIPOS>MOLECULE
2e2p_ADP_1_ligand
   39    41     1     0     0
SMALL
NO_CHARGES


@<TRIPOS>ATOM
     1 PB           6.6670    -5.0820    28.7580 P.3          1 ADP600   0.0000
     2 O1B          6.8300    -4.5560    27.3790 O.co2        1 ADP600   0.0000
     3 O2B          7.3750    -4.2660    29.7990 O.co2        1 ADP600  -1.0000
     4 O3B          5.1520    -5.3240    29.1150 O.co2        1 ADP600  -1.0000
     5 PA           8.3280    -7.2220    27.7080 P.3          1 ADP600   0.0000
     6 O1A          9.2910    -6.2070    27.1310 O.co2        1 ADP600   0.0000
     7 O2A          8.9700    -8.4390    28.3270 O.co2        1 ADP600  -1.0000
     8 O3A          7.3980    -6.5140    28.7590 O.3          1 ADP600   0.0000
     9 O5'          7.3590    -7.5360    26.4880 O.3          1 ADP600   0.0000
    10 C5'          6.6750    -8.8270    26.3900 C.3          1 ADP600   0.0000
    11 C4'          5.7130    -8.8750    25.2120 C.3          1 ADP600   0.0000
    12 O4'          6.3840    -9.3200    24.0110 O.3          1 ADP600   0.0000
    13 C3'          4.4580    -9.7750    25.3390 C.3          1 ADP600   0.0000
    14 O3'          3.3240    -8.9820    24.9460 O.3          1 ADP600   0.0000
    15 C2'          4.7480   -10.9770    24.4310 C.3          1 ADP600   0.0000
    16 O2'          3.6140   -11.4300    23.6680 O.3          1 ADP600   0.0000
    17 C1'          5.8340   -10.5090    23.4760 C.3          1 ADP600   0.0000
    18 N9           6.8770   -11.5650    23.2290 N.pl3        1 ADP600   0.0000
    19 C8           7.7410   -12.1380    24.1060 C.2          1 ADP600   0.0000
    20 N7           8.5360   -13.0580    23.5230 N.2          1 ADP600   0.0000
    21 C5           8.1390   -13.0560    22.2210 C.ar         1 ADP600   0.0000
    22 C6           8.5990   -13.8130    21.0660 C.ar         1 ADP600   0.0000
    23 N6           9.5290   -14.7100    21.0600 N.pl3        1 ADP600   0.0000
    24 N1           7.9260   -13.5100    19.8890 N.ar         1 ADP600   0.0000
    25 C2           6.9100   -12.5620    19.8030 C.ar         1 ADP600   0.0000
    26 N3           6.4810   -11.8590    20.8550 N.ar         1 ADP600   0.0000
    27 C4           7.1200   -12.1290    22.0220 C.ar         1 ADP600   0.0000
    28 H5'1         6.1610    -8.9847    27.2331 H            1 ADP600   0.0000
    29 H5'2         7.3595    -9.5472    26.2773 H            1 ADP600   0.0000
    30 H4'          5.3953    -7.9411    25.0478 H            1 ADP600   0.0000
    31 H3'          4.3504   -10.0797    26.2853 H            1 ADP600   0.0000
    32 H5           2.5123    -9.2930    25.4404 H            1 ADP600   0.0000
    33 H2'          5.0975   -11.7329    24.9845 H            1 ADP600   0.0000
    34 H7           2.8209   -10.8583    23.8782 H            1 ADP600   0.0000
    35 H1'          5.4038   -10.2863    22.6012 H            1 ADP600   0.0000
    36 H9           7.7831   -11.9035    25.0772 H            1 ADP600   0.0000
    37 H10          9.7704   -15.1742    20.2078 H            1 ADP600   0.0000
    38 H11         10.0073   -14.9400    21.9075 H            1 ADP600   0.0000
    39 H12          6.4821   -12.4000    18.9138 H            1 ADP600   0.0000
@<TRIPOS>BOND
     1    1    2      ar
     2    1    3      ar
     3    1    4      ar
     4    1    8       1
     5    5    6      ar
     6    5    7      ar
     7    5    8       1
     8    5    9       1
     9    9   10       1
    10   10   11       1
    11   11   12       1
    12   11   13       1
    13   12   17       1
    14   13   14       1
    15   13   15       1
    16   15   16       1
    17   15   17       1
    18   17   18       1
    19   18   19       1
    20   18   27       1
    21   19   20       2
    22   20   21       1
    23   21   22      ar
    24   21   27      ar
    25   22   23       1
    26   22   24      ar
    27   24   25      ar
    28   25   26      ar
    29   26   27      ar
    30   25   39       1
    31   23   38       1
    32   23   37       1
    33   10   28       1
    34   10   29       1
    35   11   30       1
    36   13   31       1
    37   14   32       1
    38   15   33       1
    39   16   34       1
    40   17   35       1
    41   19   36       1
@<TRIPOS>SUBSTRUCTURE
     1 ADP600      1 GROUP             4 A     ADP     0 **** ADP A 600
