@<TRIPOS>MOLECULE
3wrb_GDE_1_ligand
   17    17     1     0     0
SMALL
NO_CHARGES


@<TRIPOS>ATOM
     1 OAA         24.5120     5.7740     7.4120 O.co2        1 GDE502   0.0000
     2 OAB         24.5590     3.8090     6.4540 O.co2        1 GDE502  -1.0000
     3 OAC         21.4780     4.2430    11.5750 O.3          1 GDE502   0.0000
     4 OAD         22.8510     0.3350     9.2010 O.3          1 GDE502   0.0000
     5 OAE         21.5220     1.4990    11.2950 O.3          1 GDE502   0.0000
     6 CAF         22.8180     4.4950     9.5700 C.ar         1 GDE502   0.0000
     7 CAG         23.4730     2.4770     8.4040 C.ar         1 GDE502   0.0000
     8 CAH         24.2370     4.5470     7.4040 C.2          1 GDE502   0.0000
     9 CAI         22.1490     3.6900    10.5230 C.ar         1 GDE502   0.0000
    10 CAJ         22.8220     1.6930     9.3410 C.ar         1 GDE502   0.0000
    11 CAK         23.4850     3.8620     8.5120 C.ar         1 GDE502   0.0000
    12 CAL         22.1640     2.2930    10.4010 C.ar         1 GDE502   0.0000
    13 HAC         21.4519     5.2366    11.6847 H            1 GDE502   0.0000
    14 HAD         23.3371    -0.0780     8.4309 H            1 GDE502   0.0000
    15 HAE         21.0249     1.9080    12.0603 H            1 GDE502   0.0000
    16 HAF         22.8149     5.4918     9.6497 H            1 GDE502   0.0000
    17 HAG         23.9422     2.0393     7.6370 H            1 GDE502   0.0000
@<TRIPOS>BOND
     1    1    8      ar
     2    2    8      ar
     3    3    9       1
     4    4   10       1
     5    5   12       1
     6    6    9      ar
     7    6   11      ar
     8    7   10      ar
     9    7   11      ar
    10    8   11       1
    11    9   12      ar
    12   10   12      ar
    13    7   17       1
    14    3   13       1
    15    4   14       1
    16    5   15       1
    17    6   16       1
@<TRIPOS>SUBSTRUCTURE
     1 GDE502      1 GROUP             4 A     GDE     0 **** GDE A 502
