@<TRIPOS>MOLECULE
3g7f_UQ1_1_ligand
   36    36     1     0     0
SMALL
NO_CHARGES


@<TRIPOS>ATOM
     1 C1         130.3320    69.2540    -3.6730 C.2          1 UQ1502   0.0000
     2 O1         130.4400    68.6510    -4.7620 O.2          1 UQ1502   0.0000
     3 C2         130.6570    70.7090    -3.5890 C.2          1 UQ1502   0.0000
     4 O2         131.0670    71.3810    -4.7130 O.3          1 UQ1502   0.0000
     5 CM2        132.2680    72.1650    -4.7140 C.3          1 UQ1502   0.0000
     6 C3         130.5310    71.4290    -2.2940 C.2          1 UQ1502   0.0000
     7 O3         130.8090    72.7980    -2.2100 O.3          1 UQ1502   0.0000
     8 CM3        131.2450    73.4700    -1.0020 C.3          1 UQ1502   0.0000
     9 C4         130.0780    70.7060    -1.1020 C.2          1 UQ1502   0.0000
    10 O4         129.9780    71.3490    -0.0410 O.2          1 UQ1502   0.0000
    11 C5         129.7480    69.2500    -1.1690 C.2          1 UQ1502   0.0000
    12 CM5        129.2950    68.5370     0.0750 C.3          1 UQ1502   0.0000
    13 C6         129.8610    68.5170    -2.4720 C.2          1 UQ1502   0.0000
    14 C7         129.5520    67.0280    -2.5820 C.3          1 UQ1502   0.0000
    15 C8         128.1500    66.7480    -3.1120 C.2          1 UQ1502   0.0000
    16 C9         127.9260    65.9060    -4.1670 C.2          1 UQ1502   0.0000
    17 C10        129.0820    65.2480    -4.8710 C.3          1 UQ1502   0.0000
    18 C11        126.5120    65.6080    -4.6430 C.3          1 UQ1502   0.0000
    19 HM21       132.3979    72.5747    -5.6169 H            1 UQ1502   0.0000
    20 HM22       132.1945    72.8882    -4.0273 H            1 UQ1502   0.0000
    21 HM23       133.0489    71.5788    -4.4985 H            1 UQ1502   0.0000
    22 HM31       131.3786    74.4428    -1.1914 H            1 UQ1502   0.0000
    23 HM32       130.5505    73.3612    -0.2908 H            1 UQ1502   0.0000
    24 HM33       132.1068    73.0697    -0.6904 H            1 UQ1502   0.0000
    25 HM51       129.1158    67.5765    -0.1379 H            1 UQ1502   0.0000
    26 HM52       130.0095    68.5962     0.7721 H            1 UQ1502   0.0000
    27 HM53       128.4584    68.9641     0.4181 H            1 UQ1502   0.0000
    28 H10        129.6376    66.6169    -1.6744 H            1 UQ1502   0.0000
    29 H11        130.2163    66.6096    -3.2014 H            1 UQ1502   0.0000
    30 H12        127.3692    67.1940    -2.6745 H            1 UQ1502   0.0000
    31 H13        128.7368    64.6711    -5.6112 H            1 UQ1502   0.0000
    32 H14        129.6852    65.9501    -5.2493 H            1 UQ1502   0.0000
    33 H15        129.5921    64.6856    -4.2203 H            1 UQ1502   0.0000
    34 H16        126.5472    64.9770    -5.4180 H            1 UQ1502   0.0000
    35 H17        125.9902    65.1923    -3.8981 H            1 UQ1502   0.0000
    36 H18        126.0692    66.4589    -4.9258 H            1 UQ1502   0.0000
@<TRIPOS>BOND
     1    1    2       2
     2    1    3       1
     3    1   13       1
     4    3    4       1
     5    3    6       2
     6    4    5       1
     7    6    7       1
     8    6    9       1
     9    7    8       1
    10    9   10       2
    11    9   11       1
    12   11   12       1
    13   11   13       2
    14   13   14       1
    15   14   15       1
    16   15   16       2
    17   16   17       1
    18   16   18       1
    19    5   19       1
    20    5   20       1
    21    5   21       1
    22    8   22       1
    23    8   23       1
    24    8   24       1
    25   12   25       1
    26   12   26       1
    27   12   27       1
    28   14   28       1
    29   14   29       1
    30   15   30       1
    31   17   31       1
    32   17   32       1
    33   17   33       1
    34   18   34       1
    35   18   35       1
    36   18   36       1
@<TRIPOS>SUBSTRUCTURE
     1 UQ1502      1 GROUP             4 L     UQ1     0 **** UQ1 L 502
