@<TRIPOS>MOLECULE
3pvr_BYC_1_ligand
   92    95     1     0     0
SMALL
NO_CHARGES


@<TRIPOS>ATOM
     1 N1A        -38.0370    52.2100   -29.1010 N.ar         1 BYC310   0.0000
     2 O1A        -37.4120    57.1200   -37.9440 O.co2        1 BYC310   0.0000
     3 P1A        -37.6720    55.9030   -37.1440 P.3          1 BYC310   0.0000
     4 C1B        -33.2490    43.5680   -27.6600 C.2          1 BYC310   0.0000
     5 C1D        -36.8830    55.9340   -32.5000 C.3          1 BYC310   0.0000
     6 S1P        -34.3210    44.0920   -28.8680 S.3          1 BYC310   0.0000
     7 C2A        -37.2340    53.2640   -28.9420 C.ar         1 BYC310   0.0000
     8 O2A        -38.5750    54.8370   -37.6630 O.co2        1 BYC310  -1.0000
     9 P2A        -35.5640    54.0210   -37.4490 P.3          1 BYC310   0.0000
    10 C2B        -33.7060    42.5300   -26.6310 C.ar         1 BYC310   0.0000
    11 C2D        -35.9220    55.8930   -33.6630 C.3          1 BYC310   0.0000
    12 O2D        -34.6630    55.3440   -33.2330 O.3          1 BYC310   0.0000
    13 C2P        -33.1580    45.2620   -29.6110 C.3          1 BYC310   0.0000
    14 N3A        -37.0440    54.1370   -29.9270 N.ar         1 BYC310   0.0000
    15 O3A        -36.2550    55.2830   -36.7330 O.3          1 BYC310   0.0000
    16 C3B        -34.8710    41.7920   -26.8640 C.ar         1 BYC310   0.0000
    17 C3D        -35.8790    57.3880   -34.0440 C.3          1 BYC310   0.0000
    18 O3D        -35.2110    58.1710   -33.0870 O.3          1 BYC310   0.0000
    19 P3D        -33.6550    58.5290   -33.2460 P.3          1 BYC310   0.0000
    20 C3P        -33.8990    46.4730   -30.0430 C.3          1 BYC310   0.0000
    21 C4A        -37.6620    53.9700   -31.1220 C.ar         1 BYC310   0.0000
    22 O4A        -34.2260    53.8530   -36.8380 O.co2        1 BYC310   0.0000
    23 C4B        -35.3080    40.8610   -25.9280 C.ar         1 BYC310   0.0000
    24 C4D        -37.3370    57.8310   -33.8760 C.3          1 BYC310   0.0000
    25 O4D        -37.8930    56.9070   -32.8890 O.3          1 BYC310   0.0000
    26 N4P        -33.8280    46.4150   -31.4940 N.am         1 BYC310   0.0000
    27 O57        -32.1550    44.1240   -27.6200 O.2          1 BYC310   0.0000
    28 O5A        -35.6340    54.2500   -38.9190 O.co2        1 BYC310  -1.0000
    29 C5B        -34.5790    40.6810   -24.7570 C.ar         1 BYC310   0.0000
    30 C5D        -38.1430    57.7580   -35.1940 C.3          1 BYC310   0.0000
    31 O5D        -38.2470    56.3870   -35.6790 O.3          1 BYC310   0.0000
    32 C5M        -38.5160    52.8820   -31.3120 C.ar         1 BYC310   0.0000
    33 C5P        -33.2570    47.3730   -32.1870 C.2          1 BYC310   0.0000
    34 O5P        -32.7720    48.4010   -31.6910 O.2          1 BYC310   0.0000
    35 C6A        -38.6920    51.9900   -30.2550 C.ar         1 BYC310   0.0000
    36 N6A        -39.4950    50.9360   -30.3730 N.pl3        1 BYC310   0.0000
    37 O6A        -36.5270    52.7760   -37.0690 O.3          1 BYC310   0.0000
    38 C6B        -33.4210    41.4200   -24.5190 C.ar         1 BYC310   0.0000
    39 C6P        -33.3210    47.1100   -33.6900 C.3          1 BYC310   0.0000
    40 N7A        -38.9930    52.9590   -32.5660 N.2          1 BYC310   0.0000
    41 O7A        -33.3780    59.6360   -32.1170 O.co2        1 BYC310   0.0000
    42 C7B        -32.9800    42.3450   -25.4540 C.ar         1 BYC310   0.0000
    43 C7P        -32.4340    48.0400   -34.5120 C.3          1 BYC310   0.0000
    44 C8A        -38.4570    54.0480   -33.1380 C.2          1 BYC310   0.0000
    45 O8A        -33.5430    59.2820   -34.6460 O.co2        1 BYC310  -1.0000
    46 N8P        -33.1570    49.2840   -34.7810 N.am         1 BYC310   0.0000
    47 N9A        -37.6460    54.6630   -32.2650 N.pl3        1 BYC310   0.0000
    48 O9A        -32.8630    57.2560   -33.1280 O.co2        1 BYC310  -1.0000
    49 C9P        -34.0670    49.3620   -35.7500 C.2          1 BYC310   0.0000
    50 O9P        -34.3640    48.4280   -36.4890 O.2          1 BYC310   0.0000
    51 CAP        -34.6850    50.7470   -35.9400 C.3          1 BYC310   0.0000
    52 OAP        -33.8770    51.6770   -35.1950 O.3          1 BYC310   0.0000
    53 CBP        -36.1720    50.8350   -35.5250 C.3          1 BYC310   0.0000
    54 CCP        -36.6390    52.2910   -35.6970 C.3          1 BYC310   0.0000
    55 CDP        -36.3670    50.4480   -34.0550 C.3          1 BYC310   0.0000
    56 CEP        -37.0540    49.9050   -36.3800 C.3          1 BYC310   0.0000
    57 H1D        -36.4153    56.2248   -31.6653 H            1 BYC310   0.0000
    58 H2A        -36.7676    53.3995   -28.0679 H            1 BYC310   0.0000
    59 H2D        -36.3024    55.3514   -34.4126 H            1 BYC310   0.0000
    60 H4         -33.9383    56.0173   -33.3797 H            1 BYC310   0.0000
    61 H2P1       -32.7168    44.8390   -30.4025 H            1 BYC310   0.0000
    62 H2P2       -32.4631    45.5165   -28.9385 H            1 BYC310   0.0000
    63 H3B        -35.3912    41.9342   -27.7061 H            1 BYC310   0.0000
    64 H3D        -35.5359    57.5386   -34.9712 H            1 BYC310   0.0000
    65 H3P1       -33.4610    47.3026   -29.6966 H            1 BYC310   0.0000
    66 H3P2       -34.8483    46.4417   -29.7301 H            1 BYC310   0.0000
    67 H4B        -36.1369    40.3270   -26.0948 H            1 BYC310   0.0000
    68 H4D        -37.3653    58.7636   -33.5163 H            1 BYC310   0.0000
    69 H4P        -34.2215    45.6306   -31.9734 H            1 BYC310   0.0000
    70 H5B        -34.8888    40.0146   -24.0788 H            1 BYC310   0.0000
    71 H5D1       -37.6844    58.3143   -35.8870 H            1 BYC310   0.0000
    72 H5D2       -39.0625    58.1169   -35.0333 H            1 BYC310   0.0000
    73 H6A1       -39.9821    50.7721   -31.2308 H            1 BYC310   0.0000
    74 H6A2       -39.6115    50.3076   -29.6039 H            1 BYC310   0.0000
    75 H6B        -32.9071    41.2829   -23.6722 H            1 BYC310   0.0000
    76 H6P1       -34.2672    47.2277   -33.9914 H            1 BYC310   0.0000
    77 H6P2       -33.0324    46.1675   -33.8584 H            1 BYC310   0.0000
    78 H7B        -32.1487    42.8748   -25.2858 H            1 BYC310   0.0000
    79 H7P1       -32.1969    47.5976   -35.3769 H            1 BYC310   0.0000
    80 H7P2       -31.5985    48.2428   -34.0013 H            1 BYC310   0.0000
    81 H8A        -38.6352    54.3544   -34.0731 H            1 BYC310   0.0000
    82 H8P        -32.9634    50.0925   -34.2252 H            1 BYC310   0.0000
    83 HAP        -34.6189    50.9857   -36.9088 H            1 BYC310   0.0000
    84 H28        -33.9055    52.5729   -35.6383 H            1 BYC310   0.0000
    85 HCP1       -37.5968    52.3522   -35.4161 H            1 BYC310   0.0000
    86 HCP2       -36.0808    52.8749   -35.1076 H            1 BYC310   0.0000
    87 HDP1       -37.3363    50.5149   -33.8184 H            1 BYC310   0.0000
    88 HDP2       -36.0533    49.5092   -33.9130 H            1 BYC310   0.0000
    89 HDP3       -35.8386    51.0674   -33.4743 H            1 BYC310   0.0000
    90 HEP1       -38.0065    49.9862   -36.0864 H            1 BYC310   0.0000
    91 HEP2       -36.9785    50.1659   -37.3424 H            1 BYC310   0.0000
    92 HEP3       -36.7495    48.9593   -36.2661 H            1 BYC310   0.0000
@<TRIPOS>BOND
     1    1    7      ar
     2    1   35      ar
     3    2    3      ar
     4    3    8      ar
     5    3   15       1
     6    3   31       1
     7    4    6       1
     8    4   10       1
     9    4   27       2
    10    5   11       1
    11    5   25       1
    12    5   47       1
    13    6   13       1
    14    7   14      ar
    15    9   15       1
    16    9   22      ar
    17    9   28      ar
    18    9   37       1
    19   10   16      ar
    20   10   42      ar
    21   11   12       1
    22   11   17       1
    23   13   20       1
    24   14   21      ar
    25   16   23      ar
    26   17   18       1
    27   17   24       1
    28   18   19       1
    29   19   41      ar
    30   19   45      ar
    31   19   48      ar
    32   20   26       1
    33   21   32      ar
    34   21   47       1
    35   23   29      ar
    36   24   25       1
    37   24   30       1
    38   26   33      am
    39   29   38      ar
    40   30   31       1
    41   32   35      ar
    42   32   40       1
    43   33   34       2
    44   33   39       1
    45   35   36       1
    46   37   54       1
    47   38   42      ar
    48   39   43       1
    49   40   44       2
    50   43   46       1
    51   44   47       1
    52   46   49      am
    53   49   50       2
    54   49   51       1
    55   51   52       1
    56   51   53       1
    57   53   54       1
    58   53   55       1
    59   53   56       1
    60   56   92       1
    61    5   57       1
    62    7   58       1
    63   11   59       1
    64   12   60       1
    65   13   61       1
    66   13   62       1
    67   16   63       1
    68   17   64       1
    69   20   65       1
    70   20   66       1
    71   56   91       1
    72   23   67       1
    73   24   68       1
    74   26   69       1
    75   29   70       1
    76   30   71       1
    77   30   72       1
    78   36   73       1
    79   36   74       1
    80   38   75       1
    81   39   76       1
    82   39   77       1
    83   56   90       1
    84   42   78       1
    85   43   79       1
    86   43   80       1
    87   44   81       1
    88   55   89       1
    89   46   82       1
    90   51   83       1
    91   52   84       1
    92   54   85       1
    93   54   86       1
    94   55   87       1
    95   55   88       1
@<TRIPOS>SUBSTRUCTURE
     1 BYC310      1 GROUP             4 A     BYC     0 **** BYC A 310
