@<TRIPOS>MOLECULE
3rc9_TLO_1_ligand
   49    51     1     0     0
SMALL
NO_CHARGES


@<TRIPOS>ATOM
     1 N1         -45.9130   -11.3410   -15.9410 N.pl3        1 TLO337   0.0000
     2 C2         -46.5970   -10.9070   -14.8740 C.2          1 TLO337   0.0000
     3 O2         -47.6440   -11.4770   -14.5240 O.2          1 TLO337   0.0000
     4 N3         -46.2010    -9.8250   -14.1800 N.pl3        1 TLO337   0.0000
     5 C4         -45.0520    -9.2190   -14.5740 C.2          1 TLO337   0.0000
     6 O4         -44.6360    -8.2300   -13.9440 O.2          1 TLO337   0.0000
     7 C5         -44.2960    -9.6500   -15.6520 C.2          1 TLO337   0.0000
     8 C6         -44.7670   -10.7630   -16.3170 C.2          1 TLO337   0.0000
     9 PA         -41.8590   -12.7300   -18.6260 P.3          1 TLO337   0.0000
    10 PB         -41.3580   -13.8030   -21.2930 P.3          1 TLO337   0.0000
    11 CG         -40.9370   -16.4680   -21.0880 C.ar         1 TLO337   0.0000
    12 CZ         -39.4320   -18.7740   -20.9400 C.ar         1 TLO337   0.0000
    13 C1'        -46.3680   -12.5250   -16.6700 C.3          1 TLO337   0.0000
    14 O1A        -41.9650   -11.2630   -18.9290 O.co2        1 TLO337   0.0000
    15 O1B        -40.0350   -13.5070   -21.9560 O.co2        1 TLO337   0.0000
    16 C2'        -46.5980   -12.3500   -18.1700 C.3          1 TLO337   0.0000
    17 O2A        -41.1370   -12.9780   -17.3290 O.co2        1 TLO337  -1.0000
    18 O2B        -42.6650   -13.1110   -21.6010 O.co2        1 TLO337  -1.0000
    19 C3'        -46.1760   -13.7010   -18.7300 C.3          1 TLO337   0.0000
    20 O3'        -47.3430   -14.5280   -18.6820 O.3          1 TLO337   0.0000
    21 O3A        -41.0770   -13.6020   -19.7130 O.3          1 TLO337   0.0000
    22 O3B        -41.7290   -15.3580   -21.1670 O.3          1 TLO337   0.0000
    23 C4'        -45.2790   -14.3640   -17.6930 C.3          1 TLO337   0.0000
    24 O4'        -45.3610   -13.5320   -16.5310 O.3          1 TLO337   0.0000
    25 C5'        -43.8240   -14.4960   -18.1470 C.3          1 TLO337   0.0000
    26 O5'        -43.4240   -13.1650   -18.4710 O.3          1 TLO337   0.0000
    27 C5M        -43.0090    -8.9660   -16.0770 C.3          1 TLO337   0.0000
    28 CD1        -40.5940   -16.9630   -19.8360 C.ar         1 TLO337   0.0000
    29 CD2        -40.5570   -17.1180   -22.2640 C.ar         1 TLO337   0.0000
    30 CE1        -39.8200   -18.1190   -19.7680 C.ar         1 TLO337   0.0000
    31 CE2        -39.7900   -18.2800   -22.1950 C.ar         1 TLO337   0.0000
    32 H1         -46.7315    -9.4810   -13.4053 H            1 TLO337   0.0000
    33 H2         -44.2486   -11.1399   -17.0846 H            1 TLO337   0.0000
    34 HZ         -38.8885   -19.6111   -20.8782 H            1 TLO337   0.0000
    35 H1'        -47.2137   -12.8556   -16.2511 H            1 TLO337   0.0000
    36 H2'1       -46.0311   -11.6133   -18.5387 H            1 TLO337   0.0000
    37 H2'2       -47.5599   -12.1615   -18.3682 H            1 TLO337   0.0000
    38 H3'        -45.7627   -13.6454   -19.6389 H            1 TLO337   0.0000
    39 H8         -47.1235   -15.4353   -19.0406 H            1 TLO337   0.0000
    40 H4'        -45.6403   -15.2708   -17.4757 H            1 TLO337   0.0000
    41 H5'1       -43.7572   -15.0895   -18.9491 H            1 TLO337   0.0000
    42 H5'2       -43.2569   -14.8654   -17.4108 H            1 TLO337   0.0000
    43 H5M1       -42.6282    -9.4371   -16.8726 H            1 TLO337   0.0000
    44 H5M2       -43.2002    -8.0134   -16.3136 H            1 TLO337   0.0000
    45 H5M3       -42.3509    -8.9970   -15.3247 H            1 TLO337   0.0000
    46 HD1        -40.8959   -16.4999   -19.0027 H            1 TLO337   0.0000
    47 HD2        -40.8340   -16.7514   -23.1522 H            1 TLO337   0.0000
    48 HE1        -39.5413   -18.4811   -18.8785 H            1 TLO337   0.0000
    49 HE2        -39.5018   -18.7506   -23.0290 H            1 TLO337   0.0000
@<TRIPOS>BOND
     1    1    2       1
     2    1    8       1
     3    1   13       1
     4    2    3       2
     5    2    4       1
     6    4    5       1
     7    5    6       2
     8    5    7       1
     9    7    8       2
    10    7   27       1
    11    9   14      ar
    12    9   17      ar
    13    9   21       1
    14    9   26       1
    15   10   15      ar
    16   10   18      ar
    17   10   21       1
    18   10   22       1
    19   11   22       1
    20   11   28      ar
    21   11   29      ar
    22   12   30      ar
    23   12   31      ar
    24   13   16       1
    25   13   24       1
    26   16   19       1
    27   19   20       1
    28   19   23       1
    29   23   24       1
    30   23   25       1
    31   25   26       1
    32   28   30      ar
    33   29   31      ar
    34    4   32       1
    35    8   33       1
    36   12   34       1
    37   13   35       1
    38   31   49       1
    39   30   48       1
    40   16   36       1
    41   16   37       1
    42   19   38       1
    43   20   39       1
    44   23   40       1
    45   25   41       1
    46   25   42       1
    47   27   43       1
    48   27   44       1
    49   27   45       1
    50   28   46       1
    51   29   47       1
@<TRIPOS>SUBSTRUCTURE
     1 TLO337      1 GROUP             4 A     TLO     0 **** TLO A 337
