@<TRIPOS>MOLECULE
3cty_FAD_1_ligand
   84    89     1     0     0
SMALL
NO_CHARGES


@<TRIPOS>ATOM
     1 PA          72.4680    35.4600    27.8350 P.3          1 FAD1000   0.0000
     2 O1A         73.0560    34.5870    28.8920 O.co2        1 FAD1000   0.0000
     3 O2A         72.0720    36.8540    28.1690 O.co2        1 FAD1000  -1.0000
     4 O5B         73.5230    35.4280    26.6360 O.3          1 FAD1000   0.0000
     5 C5B         73.4190    36.1410    25.3830 C.3          1 FAD1000   0.0000
     6 C4B         74.8140    36.0700    24.7730 C.3          1 FAD1000   0.0000
     7 O4B         74.8080    36.5580    23.4110 O.3          1 FAD1000   0.0000
     8 C3B         75.9330    36.8450    25.5240 C.3          1 FAD1000   0.0000
     9 O3B         77.0650    36.0820    25.8500 O.3          1 FAD1000   0.0000
    10 C2B         76.2360    38.0320    24.6110 C.3          1 FAD1000   0.0000
    11 O2B         77.5220    38.6000    24.6700 O.3          1 FAD1000   0.0000
    12 C1B         75.8660    37.5200    23.2300 C.3          1 FAD1000   0.0000
    13 N9A         75.3950    38.5370    22.2900 N.pl3        1 FAD1000   0.0000
    14 C8A         74.4920    39.5470    22.4930 C.2          1 FAD1000   0.0000
    15 N7A         74.2800    40.3030    21.4280 N.2          1 FAD1000   0.0000
    16 C5A         75.1030    39.7470    20.4650 C.ar         1 FAD1000   0.0000
    17 C6A         75.3460    40.0950    19.0830 C.ar         1 FAD1000   0.0000
    18 N6A         74.7200    41.1340    18.4920 N.pl3        1 FAD1000   0.0000
    19 N1A         76.2420    39.3350    18.3730 N.ar         1 FAD1000   0.0000
    20 C2A         76.8600    38.2910    18.9990 C.ar         1 FAD1000   0.0000
    21 N3A         76.7070    37.8800    20.2790 N.ar         1 FAD1000   0.0000
    22 C4A         75.7810    38.6860    20.9670 C.ar         1 FAD1000   0.0000
    23 N1          68.8080    32.3780    36.2820 N.2          1 FAD1000   0.0000
    24 C2          68.4410    31.2240    36.9540 C.2          1 FAD1000   0.0000
    25 O2          67.7990    30.2920    36.4040 O.2          1 FAD1000   0.0000
    26 N3          68.7900    31.0710    38.3110 N.pl3        1 FAD1000   0.0000
    27 C4          69.5030    32.0230    39.0590 C.2          1 FAD1000   0.0000
    28 O4          69.7640    31.7950    40.2620 O.2          1 FAD1000   0.0000
    29 C4X         69.8830    33.2160    38.3530 C.2          1 FAD1000   0.0000
    30 N5          70.6040    34.2250    39.0400 N.2          1 FAD1000   0.0000
    31 C5X         70.9720    35.3780    38.3440 C.ar         1 FAD1000   0.0000
    32 C6          71.7030    36.4030    39.0340 C.ar         1 FAD1000   0.0000
    33 C7          72.1080    37.5730    38.4010 C.ar         1 FAD1000   0.0000
    34 C7M         72.8820    38.6090    39.2310 C.3          1 FAD1000   0.0000
    35 C8          71.8030    37.7810    37.0260 C.ar         1 FAD1000   0.0000
    36 C8M         72.2170    39.0320    36.2660 C.3          1 FAD1000   0.0000
    37 C9          71.0620    36.7580    36.3130 C.ar         1 FAD1000   0.0000
    38 C9A         70.6360    35.5690    36.9400 C.ar         1 FAD1000   0.0000
    39 N10         69.8820    34.5230    36.2530 N.pl3        1 FAD1000   0.0000
    40 C10         69.5170    33.3570    36.9640 C.2          1 FAD1000   0.0000
    41 C1'         69.4750    34.6700    34.8190 C.3          1 FAD1000   0.0000
    42 C2'         70.2220    33.8430    33.7770 C.3          1 FAD1000   0.0000
    43 O2'         71.6090    34.1440    33.8900 O.3          1 FAD1000   0.0000
    44 C3'         69.6380    34.1750    32.3810 C.3          1 FAD1000   0.0000
    45 O3'         68.2560    33.8310    32.3890 O.3          1 FAD1000   0.0000
    46 C4'         70.3230    33.3850    31.2400 C.3          1 FAD1000   0.0000
    47 O4'         71.7060    33.7210    31.2430 O.3          1 FAD1000   0.0000
    48 C5'         69.7270    33.7390    29.8890 C.3          1 FAD1000   0.0000
    49 O5'         70.3820    32.9550    28.8930 O.3          1 FAD1000   0.0000
    50 P           70.4120    33.3330    27.3400 P.3          1 FAD1000   0.0000
    51 O1P         71.1610    32.2660    26.6900 O.co2        1 FAD1000   0.0000
    52 O2P         69.0280    33.5660    26.8590 O.co2        1 FAD1000  -1.0000
    53 O3P         71.1900    34.7390    27.1800 O.3          1 FAD1000   0.0000
    54 H5B1        73.1521    37.0918    25.5405 H            1 FAD1000   0.0000
    55 H5B2        72.7501    35.7020    24.7831 H            1 FAD1000   0.0000
    56 H4B         75.0816    35.1068    24.7460 H            1 FAD1000   0.0000
    57 H3B         75.5450    37.2006    26.3743 H            1 FAD1000   0.0000
    58 H5          77.4772    35.7227    25.0128 H            1 FAD1000   0.0000
    59 H2B         75.5842    38.7545    24.8415 H            1 FAD1000   0.0000
    60 H7          78.2033    37.9081    24.4309 H            1 FAD1000   0.0000
    61 H1B         76.6591    37.0570    22.8341 H            1 FAD1000   0.0000
    62 H8A         74.0336    39.6994    23.3686 H            1 FAD1000   0.0000
    63 H6A1        74.9077    41.3516    17.5342 H            1 FAD1000   0.0000
    64 H6A2        74.0683    41.6864    19.0118 H            1 FAD1000   0.0000
    65 H2A         77.5047    37.7657    18.4436 H            1 FAD1000   0.0000
    66 H13         68.5115    30.2286    38.7722 H            1 FAD1000   0.0000
    67 H14         71.9278    36.2715    39.9995 H            1 FAD1000   0.0000
    68 H7M1        73.1091    39.3947    38.6556 H            1 FAD1000   0.0000
    69 H7M2        72.3168    38.9104    39.9989 H            1 FAD1000   0.0000
    70 H7M3        73.7238    38.1960    39.5786 H            1 FAD1000   0.0000
    71 H8M1        71.9004    38.9672    35.3197 H            1 FAD1000   0.0000
    72 H8M2        71.8093    39.8356    36.6996 H            1 FAD1000   0.0000
    73 H8M3        73.2134    39.1156    36.2792 H            1 FAD1000   0.0000
    74 H21         70.8466    36.9003    35.3469 H            1 FAD1000   0.0000
    75 H1'1        69.5903    35.6326    34.5738 H            1 FAD1000   0.0000
    76 H1'2        68.5078    34.4238    34.7571 H            1 FAD1000   0.0000
    77 H2'         70.0813    32.8715    33.9680 H            1 FAD1000   0.0000
    78 H25         72.0461    34.0423    32.9963 H            1 FAD1000   0.0000
    79 H3'         69.7334    35.1552    32.2076 H            1 FAD1000   0.0000
    80 H27         67.7590    34.4330    31.7640 H            1 FAD1000   0.0000
    81 H4'         70.2179    32.4041    31.4040 H            1 FAD1000   0.0000
    82 H29         71.9525    34.1264    30.3627 H            1 FAD1000   0.0000
    83 H5'1        69.8678    34.7111    29.7012 H            1 FAD1000   0.0000
    84 H5'2        68.7475    33.5378    29.8880 H            1 FAD1000   0.0000
@<TRIPOS>BOND
     1    1    2      ar
     2    1    3      ar
     3    1    4       1
     4    1   53       1
     5    4    5       1
     6    5    6       1
     7    6    7       1
     8    6    8       1
     9    7   12       1
    10    8    9       1
    11    8   10       1
    12   10   11       1
    13   10   12       1
    14   12   13       1
    15   13   14       1
    16   13   22       1
    17   14   15       2
    18   15   16       1
    19   16   17      ar
    20   16   22      ar
    21   17   18       1
    22   17   19      ar
    23   19   20      ar
    24   20   21      ar
    25   21   22      ar
    26   23   24       1
    27   23   40       2
    28   24   25       2
    29   24   26       1
    30   26   27       1
    31   27   28       2
    32   27   29       1
    33   29   30       2
    34   29   40       1
    35   30   31       1
    36   31   32      ar
    37   31   38      ar
    38   32   33      ar
    39   33   34       1
    40   33   35      ar
    41   35   36       1
    42   35   37      ar
    43   37   38      ar
    44   38   39       1
    45   39   40       1
    46   39   41       1
    47   41   42       1
    48   42   43       1
    49   42   44       1
    50   44   45       1
    51   44   46       1
    52   46   47       1
    53   46   48       1
    54   48   49       1
    55   49   50       1
    56   50   51      ar
    57   50   52      ar
    58   50   53       1
    59   48   84       1
    60    5   54       1
    61    5   55       1
    62    6   56       1
    63    8   57       1
    64    9   58       1
    65   10   59       1
    66   11   60       1
    67   12   61       1
    68   14   62       1
    69   18   63       1
    70   18   64       1
    71   20   65       1
    72   26   66       1
    73   32   67       1
    74   34   68       1
    75   34   69       1
    76   34   70       1
    77   36   71       1
    78   36   72       1
    79   36   73       1
    80   37   74       1
    81   41   75       1
    82   41   76       1
    83   42   77       1
    84   43   78       1
    85   44   79       1
    86   45   80       1
    87   46   81       1
    88   47   82       1
    89   48   83       1
@<TRIPOS>SUBSTRUCTURE
     1 FAD1000     1 GROUP             4 A     FAD     0 **** FAD A1000
