@<TRIPOS>MOLECULE
3p8h_P8H_1_ligand
   41    43     1     0     0
SMALL
NO_CHARGES


@<TRIPOS>ATOM
     1 C1          18.4210    27.8820   -12.6390 C.ar         1 P8H600   0.0000
     2 C2          17.3370    28.5990   -13.1270 C.ar         1 P8H600   0.0000
     3 N3          17.4940    29.8390   -13.5600 N.ar         1 P8H600   0.0000
     4 C4          18.6820    30.4240   -13.5470 C.ar         1 P8H600   0.0000
     5 C5          19.8120    29.7530   -13.0760 C.ar         1 P8H600   0.0000
     6 C6          19.6890    28.4540   -12.6010 C.ar         1 P8H600   0.0000
     7 C7          21.1390    30.5030   -13.0970 C.2          1 P8H600   0.0000
     8 BR8         18.1370    26.1240   -12.0170 Br           1 P8H600   0.0000
     9 O9          21.2760    31.4740   -12.3590 O.2          1 P8H600   0.0000
    10 N10         22.1070    30.2190   -13.9780 N.am         1 P8H600   0.0000
    11 C11         22.0140    29.0590   -14.8850 C.3          1 P8H600   0.0000
    12 C12         23.1390    28.1170   -14.4360 C.3          1 P8H600   0.0000
    13 C13         23.3850    30.9940   -13.9800 C.3          1 P8H600   0.0000
    14 C14         24.5610    30.0470   -13.6540 C.3          1 P8H600   0.0000
    15 C15         24.5250    28.7930   -14.5340 C.3          1 P8H600   0.0000
    16 N16         25.5730    27.8430   -14.1490 N.4          1 P8H600   1.0000
    17 C17         25.7360    26.7830   -15.1690 C.3          1 P8H600   0.0000
    18 C18         27.1850    26.2870   -14.9970 C.3          1 P8H600   0.0000
    19 C19         27.8290    27.2760   -14.0290 C.3          1 P8H600   0.0000
    20 C20         26.9000    28.4810   -14.0800 C.3          1 P8H600   0.0000
    21 H1          16.4315    28.1753   -13.1513 H            1 P8H600   0.0000
    22 H2          18.7712    31.3626   -13.8803 H            1 P8H600   0.0000
    23 H3          20.4776    27.9513   -12.2469 H            1 P8H600   0.0000
    24 H4          22.1502    29.3426   -15.8342 H            1 P8H600   0.0000
    25 H5          21.1239    28.6123   -14.7950 H            1 P8H600   0.0000
    26 H6          23.1330    27.3044   -15.0188 H            1 P8H600   0.0000
    27 H7          22.9764    27.8476   -13.4868 H            1 P8H600   0.0000
    28 H8          23.3378    31.7167   -13.2905 H            1 P8H600   0.0000
    29 H9          23.5259    31.4024   -14.8818 H            1 P8H600   0.0000
    30 H10         24.5026    29.7733   -12.6940 H            1 P8H600   0.0000
    31 H11         25.4221    30.5307   -13.8109 H            1 P8H600   0.0000
    32 H12         24.6781    29.0670   -15.4835 H            1 P8H600   0.0000
    33 H13         25.5978    27.1540   -16.0873 H            1 P8H600   0.0000
    34 H14         25.0879    26.0384   -15.0093 H            1 P8H600   0.0000
    35 H15         27.6644    26.2913   -15.8746 H            1 P8H600   0.0000
    36 H16         27.1971    25.3629   -14.6151 H            1 P8H600   0.0000
    37 H17         28.7503    27.5222   -14.3301 H            1 P8H600   0.0000
    38 H18         27.8707    26.8959   -13.1050 H            1 P8H600   0.0000
    39 H19         26.9900    29.0441   -13.2585 H            1 P8H600   0.0000
    40 H20         27.0761    29.0414   -14.8893 H            1 P8H600   0.0000
    41 H21         25.3489    27.4313   -13.2657 H            1 P8H600   0.0000
@<TRIPOS>BOND
     1    1    2      ar
     2    1    6      ar
     3    1    8       1
     4    2    3      ar
     5    3    4      ar
     6    4    5      ar
     7    5    6      ar
     8    5    7       1
     9    7    9       2
    10    7   10      am
    11   10   11       1
    12   10   13       1
    13   11   12       1
    14   12   15       1
    15   13   14       1
    16   14   15       1
    17   15   16       1
    18   16   17       1
    19   16   20       1
    20   17   18       1
    21   18   19       1
    22   19   20       1
    23    2   21       1
    24    4   22       1
    25    6   23       1
    26   11   24       1
    27   11   25       1
    28   12   26       1
    29   12   27       1
    30   13   28       1
    31   13   29       1
    32   14   30       1
    33   14   31       1
    34   15   32       1
    35   17   33       1
    36   17   34       1
    37   18   35       1
    38   18   36       1
    39   19   37       1
    40   19   38       1
    41   20   39       1
    42   20   40       1
    43   16   41       1
@<TRIPOS>SUBSTRUCTURE
     1 P8H600      1 GROUP             4 A     P8H     0 **** P8H A 600
