@<TRIPOS>MOLECULE
3dhc_CYK_1_ligand
   33    32     1     0     0
SMALL
NO_CHARGES


@<TRIPOS>ATOM
     1 C2          11.0580    34.4530    28.3600 C.3          1 CYK253   0.0000
     2 C5          10.9690    34.6570    24.6460 C.2          1 CYK253   0.0000
     3 C4          12.6410    33.1920    26.8750 C.2          1 CYK253   0.0000
     4 O3          12.1060    35.0510    24.2990 O.2          1 CYK253   0.0000
     5 N1          10.6720    34.3660    25.9100 N.am         1 CYK253   0.0000
     6 C3          11.6660    34.3530    26.9680 C.3          1 CYK253   0.0000
     7 O2          13.6400    33.1540    27.4590 O.co2        1 CYK253   0.0000
     8 O1          12.4060    32.2580    26.2090 O.co2        1 CYK253  -1.0000
     9 C1          11.7400    35.5700    29.1830 C.3          1 CYK253   0.0000
    10 S           11.1400    35.5560    30.8790 S.3          1 CYK253   0.0000
    11 C6           9.8410    34.4350    23.6620 C.3          1 CYK253   0.0000
    12 C7           9.9830    33.0310    23.0030 C.3          1 CYK253   0.0000
    13 C8           9.3450    31.9210    23.8820 C.3          1 CYK253   0.0000
    14 C9           9.1120    30.4930    23.3390 C.3          1 CYK253   0.0000
    15 C10          8.8960    30.4740    21.8460 C.3          1 CYK253   0.0000
    16 H1          11.1769    33.5797    28.8324 H            1 CYK253   0.0000
    17 H2          10.0826    34.6570    28.2770 H            1 CYK253   0.0000
    18 H3           9.7240    34.1470    26.1409 H            1 CYK253   0.0000
    19 H4          12.2113    35.1821    26.8447 H            1 CYK253   0.0000
    20 H5          11.5349    36.4566    28.7684 H            1 CYK253   0.0000
    21 H6          12.7291    35.4225    29.1823 H            1 CYK253   0.0000
    22 H7          11.5898    36.2831    31.3977 H            1 CYK253   0.0000
    23 H8           9.8757    35.1394    22.9530 H            1 CYK253   0.0000
    24 H9           8.9658    34.4889    24.1428 H            1 CYK253   0.0000
    25 H10         10.9541    32.8279    22.8776 H            1 CYK253   0.0000
    26 H11          9.5272    33.0425    22.1130 H            1 CYK253   0.0000
    27 H12          8.4493    32.2649    24.1640 H            1 CYK253   0.0000
    28 H13          9.9331    31.8247    24.6851 H            1 CYK253   0.0000
    29 H14          8.3045    30.1074    23.7853 H            1 CYK253   0.0000
    30 H15          9.9117    29.9328    23.5550 H            1 CYK253   0.0000
    31 H16          8.7502    29.5325    21.5423 H            1 CYK253   0.0000
    32 H17          8.0937    31.0258    21.6182 H            1 CYK253   0.0000
    33 H18          9.7009    30.8511    21.3879 H            1 CYK253   0.0000
@<TRIPOS>BOND
     1    1    6       1
     2    1    9       1
     3    2    4       2
     4    2    5      am
     5    2   11       1
     6    3    6       1
     7    3    7      ar
     8    3    8      ar
     9    5    6       1
    10    9   10       1
    11   11   12       1
    12   12   13       1
    13   13   14       1
    14   14   15       1
    15    1   16       1
    16    1   17       1
    17    5   18       1
    18    6   19       1
    19   15   33       1
    20    9   20       1
    21    9   21       1
    22   10   22       1
    23   11   23       1
    24   11   24       1
    25   12   25       1
    26   12   26       1
    27   13   27       1
    28   13   28       1
    29   14   29       1
    30   14   30       1
    31   15   31       1
    32   15   32       1
@<TRIPOS>SUBSTRUCTURE
     1 CYK253      1 GROUP             4 A     CYK     0 **** CYK A 253
