@<TRIPOS>MOLECULE
4jvl_EST_2_ligand
   44    47     1     0     0
SMALL
NO_CHARGES


@<TRIPOS>ATOM
     1 C1          29.9800     4.0170     4.3660 C.ar         1 EST302   0.0000
     2 C2          30.3490     5.1090     5.1480 C.ar         1 EST302   0.0000
     3 C3          31.0500     4.9390     6.3410 C.ar         1 EST302   0.0000
     4 O3          31.4200     6.0110     7.0930 O.3          1 EST302   0.0000
     5 C4          31.3990     3.6740     6.7850 C.ar         1 EST302   0.0000
     6 C5          31.0550     2.5590     6.0410 C.ar         1 EST302   0.0000
     7 C6          31.4540     1.2000     6.5520 C.3          1 EST302   0.0000
     8 C7          30.7050     0.0950     5.8250 C.3          1 EST302   0.0000
     9 C8          30.7600     0.3330     4.3300 C.3          1 EST302   0.0000
    10 C9          29.9140     1.5490     3.9640 C.3          1 EST302   0.0000
    11 C10         30.3140     2.7290     4.7700 C.ar         1 EST302   0.0000
    12 C11         29.9460     1.8220     2.4570 C.3          1 EST302   0.0000
    13 C12         29.4510     0.6100     1.6700 C.3          1 EST302   0.0000
    14 C13         30.2140    -0.6410     2.0850 C.3          1 EST302   0.0000
    15 C14         30.1690    -0.8470     3.5840 C.3          1 EST302   0.0000
    16 C15         30.7930    -2.2240     3.7890 C.3          1 EST302   0.0000
    17 C16         30.3310    -3.0000     2.5490 C.3          1 EST302   0.0000
    18 C17         29.6280    -1.9740     1.6540 C.3          1 EST302   0.0000
    19 O17         29.8610    -2.2330     0.2720 O.3          1 EST302   0.0000
    20 C18         31.6590    -0.5360     1.6090 C.3          1 EST302   0.0000
    21 H1          29.4752     4.1592     3.5146 H            1 EST302   0.0000
    22 H2          30.1067     6.0317     4.8482 H            1 EST302   0.0000
    23 H3          31.9225     5.8735     7.9466 H            1 EST302   0.0000
    24 H4          31.8999     3.5665     7.6438 H            1 EST302   0.0000
    25 H5          31.2472     1.1456     7.5289 H            1 EST302   0.0000
    26 H6          32.4362     1.0747     6.4118 H            1 EST302   0.0000
    27 H7          29.7510     0.0880     6.1249 H            1 EST302   0.0000
    28 H8          31.1273    -0.7865     6.0363 H            1 EST302   0.0000
    29 H9          31.7068     0.4779     4.0428 H            1 EST302   0.0000
    30 H10         28.9677     1.3337     4.2051 H            1 EST302   0.0000
    31 H11         30.8849     2.0291     2.1821 H            1 EST302   0.0000
    32 H12         29.3588     2.6056     2.2542 H            1 EST302   0.0000
    33 H13         29.5907     0.7721     0.6932 H            1 EST302   0.0000
    34 H14         28.4764     0.4762     1.8497 H            1 EST302   0.0000
    35 H15         29.2065    -0.9139     3.8468 H            1 EST302   0.0000
    36 H16         30.4540    -2.6511     4.6273 H            1 EST302   0.0000
    37 H17         31.7906    -2.1648     3.8250 H            1 EST302   0.0000
    38 H18         29.6965    -3.7277     2.8097 H            1 EST302   0.0000
    39 H19         31.1163    -3.3969     2.0738 H            1 EST302   0.0000
    40 H20         28.6450    -1.9847     1.8375 H            1 EST302   0.0000
    41 H21         29.4619    -3.1164     0.0265 H            1 EST302   0.0000
    42 H22         32.1602    -1.3573     1.8814 H            1 EST302   0.0000
    43 H23         31.6764    -0.4499     0.6129 H            1 EST302   0.0000
    44 H24         32.0879     0.2681     2.0206 H            1 EST302   0.0000
@<TRIPOS>BOND
     1    1    2      ar
     2    1   11      ar
     3    2    3      ar
     4    3    4       1
     5    3    5      ar
     6    5    6      ar
     7    6    7       1
     8    6   11      ar
     9    7    8       1
    10    8    9       1
    11    9   10       1
    12    9   15       1
    13   10   11       1
    14   10   12       1
    15   12   13       1
    16   13   14       1
    17   14   15       1
    18   14   18       1
    19   14   20       1
    20   15   16       1
    21   16   17       1
    22   17   18       1
    23   18   19       1
    24    1   21       1
    25    2   22       1
    26    4   23       1
    27    5   24       1
    28    7   25       1
    29    7   26       1
    30    8   27       1
    31    8   28       1
    32    9   29       1
    33   10   30       1
    34   12   31       1
    35   12   32       1
    36   13   33       1
    37   13   34       1
    38   15   35       1
    39   16   36       1
    40   16   37       1
    41   17   38       1
    42   17   39       1
    43   18   40       1
    44   19   41       1
    45   20   42       1
    46   20   43       1
    47   20   44       1
@<TRIPOS>SUBSTRUCTURE
     1 EST302      1 GROUP             4 B     EST     0 **** EST B 302
