@<TRIPOS>MOLECULE
2p35_SAH_2_ligand
   46    48     1     0     0
SMALL
NO_CHARGES


@<TRIPOS>ATOM
     1 N          -27.4770    56.2640    39.1020 N.4          1 SAH301   1.0000
     2 CA         -26.4370    56.4100    40.1590 C.3          1 SAH301   0.0000
     3 CB         -26.8610    55.7110    41.4610 C.3          1 SAH301   0.0000
     4 CG         -26.6320    54.2190    41.6920 C.3          1 SAH301   0.0000
     5 SD         -26.7420    53.7760    43.4650 S.3          1 SAH301   0.0000
     6 C          -25.0480    56.0010    39.6660 C.2          1 SAH301   0.0000
     7 O          -24.7710    55.9180    38.4650 O.co2        1 SAH301   0.0000
     8 OXT        -24.1530    55.7520    40.4720 O.co2        1 SAH301  -1.0000
     9 C5'        -28.4710    53.2490    43.3890 C.3          1 SAH301   0.0000
    10 C4'        -29.4320    54.4080    43.6310 C.3          1 SAH301   0.0000
    11 O4'        -30.7430    54.0220    43.2810 O.3          1 SAH301   0.0000
    12 C3'        -29.4580    54.8680    45.0960 C.3          1 SAH301   0.0000
    13 O3'        -29.4190    56.2740    45.1080 O.3          1 SAH301   0.0000
    14 C2'        -30.7810    54.3590    45.6220 C.3          1 SAH301   0.0000
    15 O2'        -31.3510    55.2250    46.5890 O.3          1 SAH301   0.0000
    16 C1'        -31.6250    54.3090    44.3470 C.3          1 SAH301   0.0000
    17 N9         -32.7190    53.3320    44.4410 N.pl3        1 SAH301   0.0000
    18 C8         -32.6380    52.0180    44.8500 C.2          1 SAH301   0.0000
    19 N7         -33.8860    51.4960    44.7920 N.2          1 SAH301   0.0000
    20 C5         -34.7410    52.4430    44.3580 C.ar         1 SAH301   0.0000
    21 C6         -36.1110    52.4310    44.1200 C.ar         1 SAH301   0.0000
    22 N6         -36.8180    51.3190    44.3290 N.pl3        1 SAH301   0.0000
    23 N1         -36.7180    53.5740    43.6470 N.ar         1 SAH301   0.0000
    24 C2         -35.9940    54.7400    43.4300 C.ar         1 SAH301   0.0000
    25 N3         -34.6310    54.7270    43.6700 N.ar         1 SAH301   0.0000
    26 C4         -34.0230    53.6050    44.1270 C.ar         1 SAH301   0.0000
    27 H1         -27.4506    57.0593    38.4963 H            1 SAH301   0.0000
    28 H2         -27.2992    55.4350    38.5717 H            1 SAH301   0.0000
    29 HA         -26.3845    57.3864    40.3685 H            1 SAH301   0.0000
    30 HB1        -27.8458    55.8598    41.5503 H            1 SAH301   0.0000
    31 HB2        -26.3838    56.1850    42.2010 H            1 SAH301   0.0000
    32 HG1        -25.7229    53.9756    41.3540 H            1 SAH301   0.0000
    33 HG2        -27.3244    53.7039    41.1868 H            1 SAH301   0.0000
    34 H5'1       -28.6264    52.5496    44.0866 H            1 SAH301   0.0000
    35 H5'2       -28.6516    52.8633    42.4842 H            1 SAH301   0.0000
    36 H4'        -29.1585    55.1790    43.0558 H            1 SAH301   0.0000
    37 H3'        -28.6922    54.4811    45.6097 H            1 SAH301   0.0000
    38 H12        -30.2130    56.6337    44.6180 H            1 SAH301   0.0000
    39 H2'        -30.6723    53.4402    46.0014 H            1 SAH301   0.0000
    40 H14        -31.9364    55.8951    46.1326 H            1 SAH301   0.0000
    41 H1'        -32.0216    55.2142    44.1945 H            1 SAH301   0.0000
    42 H16        -31.8090    51.5380    45.1371 H            1 SAH301   0.0000
    43 H17        -37.8031    51.3131    44.1571 H            1 SAH301   0.0000
    44 H18        -36.3628    50.4915    44.6576 H            1 SAH301   0.0000
    45 H19        -36.4480    55.5706    43.1074 H            1 SAH301   0.0000
    46 H20        -28.3791    56.1997    39.5286 H            1 SAH301   0.0000
@<TRIPOS>BOND
     1    1    2       1
     2    2    3       1
     3    2    6       1
     4    3    4       1
     5    4    5       1
     6    5    9       1
     7    6    7      ar
     8    6    8      ar
     9    9   10       1
    10   10   11       1
    11   10   12       1
    12   11   16       1
    13   12   13       1
    14   12   14       1
    15   14   15       1
    16   14   16       1
    17   16   17       1
    18   17   18       1
    19   17   26       1
    20   18   19       2
    21   19   20       1
    22   20   21      ar
    23   20   26      ar
    24   21   22       1
    25   21   23      ar
    26   23   24      ar
    27   24   25      ar
    28   25   26      ar
    29    1   27       1
    30    1   28       1
    31    2   29       1
    32    3   30       1
    33    3   31       1
    34    4   32       1
    35    4   33       1
    36    1   46       1
    37    9   34       1
    38    9   35       1
    39   10   36       1
    40   12   37       1
    41   13   38       1
    42   14   39       1
    43   15   40       1
    44   16   41       1
    45   18   42       1
    46   22   43       1
    47   22   44       1
    48   24   45       1
@<TRIPOS>SUBSTRUCTURE
     1 SAH301      1 GROUP             4 B     SAH     0 **** SAH B 301
