@<TRIPOS>MOLECULE
4wxx_SAH_1_ligand
   46    48     1     0     0
SMALL
NO_CHARGES


@<TRIPOS>ATOM
     1 N          -45.7030    57.1070    10.5430 N.4          1 SAH1706   1.0000
     2 CA         -45.4300    56.3430     9.3290 C.3          1 SAH1706   0.0000
     3 CB         -45.6580    57.1730     8.0700 C.3          1 SAH1706   0.0000
     4 CG         -46.6180    58.3440     8.2340 C.3          1 SAH1706   0.0000
     5 SD         -48.1950    58.0420     7.3980 S.3          1 SAH1706   0.0000
     6 C          -44.0280    55.7450     9.3380 C.2          1 SAH1706   0.0000
     7 O          -43.5460    55.2850    10.3730 O.co2        1 SAH1706   0.0000
     8 OXT        -43.3560    55.6980     8.3070 O.co2        1 SAH1706  -1.0000
     9 C5'        -47.9340    59.4820     6.3310 C.3          1 SAH1706   0.0000
    10 C4'        -47.9400    60.7910     7.1120 C.3          1 SAH1706   0.0000
    11 O4'        -47.6730    61.8850     6.2560 O.3          1 SAH1706   0.0000
    12 C3'        -49.2900    61.0610     7.7590 C.3          1 SAH1706   0.0000
    13 O3'        -49.1570    61.0110     9.1590 O.3          1 SAH1706   0.0000
    14 C2'        -49.6690    62.4650     7.3340 C.3          1 SAH1706   0.0000
    15 O2'        -50.0290    63.2330     8.4560 O.3          1 SAH1706   0.0000
    16 C1'        -48.4020    63.0120     6.6990 C.3          1 SAH1706   0.0000
    17 N9         -48.6890    63.9430     5.5920 N.pl3        1 SAH1706   0.0000
    18 C8         -49.7510    63.9100     4.7240 C.2          1 SAH1706   0.0000
    19 N7         -49.6330    64.9510     3.8650 N.2          1 SAH1706   0.0000
    20 C5         -48.5130    65.6450     4.1720 C.ar         1 SAH1706   0.0000
    21 C6         -47.9250    66.7780     3.6240 C.ar         1 SAH1706   0.0000
    22 N6         -48.4820    67.3930     2.5840 N.pl3        1 SAH1706   0.0000
    23 N1         -46.7540    67.2670     4.1650 N.ar         1 SAH1706   0.0000
    24 C2         -46.1730    66.6320     5.2430 C.ar         1 SAH1706   0.0000
    25 N3         -46.7630    65.5070     5.7820 N.ar         1 SAH1706   0.0000
    26 C4         -47.9140    65.0220     5.2570 C.ar         1 SAH1706   0.0000
    27 H1         -45.5424    56.5295    11.3435 H            1 SAH1706   0.0000
    28 H2         -45.0983    57.9026    10.5792 H            1 SAH1706   0.0000
    29 HA         -46.0779    55.5817     9.3047 H            1 SAH1706   0.0000
    30 HB1        -46.0244    56.5686     7.3625 H            1 SAH1706   0.0000
    31 HB2        -44.7745    57.5358     7.7737 H            1 SAH1706   0.0000
    32 HG1        -46.1976    59.1641     7.8458 H            1 SAH1706   0.0000
    33 HG2        -46.7904    58.4873     9.2086 H            1 SAH1706   0.0000
    34 H5'1       -48.6635    59.5121     5.6477 H            1 SAH1706   0.0000
    35 H5'2       -47.0509    59.3858     5.8718 H            1 SAH1706   0.0000
    36 H4'        -47.2377    60.7519     7.8228 H            1 SAH1706   0.0000
    37 H3'        -49.9715    60.4001     7.4446 H            1 SAH1706   0.0000
    38 H12        -48.5001    61.7039     9.4564 H            1 SAH1706   0.0000
    39 H2'        -50.4151    62.4423     6.6685 H            1 SAH1706   0.0000
    40 H14        -49.2175    63.6877     8.8230 H            1 SAH1706   0.0000
    41 H1'        -47.8689    63.4906     7.3967 H            1 SAH1706   0.0000
    42 H16        -50.4869    63.2329     4.7252 H            1 SAH1706   0.0000
    43 H17        -48.0518    68.2080     2.1959 H            1 SAH1706   0.0000
    44 H18        -49.3309    67.0402     2.1904 H            1 SAH1706   0.0000
    45 H19        -45.3239    66.9871     5.6341 H            1 SAH1706   0.0000
    46 H20        -46.6553    57.4121    10.5378 H            1 SAH1706   0.0000
@<TRIPOS>BOND
     1    1    2       1
     2    2    3       1
     3    2    6       1
     4    3    4       1
     5    4    5       1
     6    5    9       1
     7    6    7      ar
     8    6    8      ar
     9    9   10       1
    10   10   11       1
    11   10   12       1
    12   11   16       1
    13   12   13       1
    14   12   14       1
    15   14   15       1
    16   14   16       1
    17   16   17       1
    18   17   18       1
    19   17   26       1
    20   18   19       2
    21   19   20       1
    22   20   21      ar
    23   20   26      ar
    24   21   22       1
    25   21   23      ar
    26   23   24      ar
    27   24   25      ar
    28   25   26      ar
    29    1   27       1
    30    1   28       1
    31    2   29       1
    32    3   30       1
    33    3   31       1
    34    4   32       1
    35    4   33       1
    36    1   46       1
    37    9   34       1
    38    9   35       1
    39   10   36       1
    40   12   37       1
    41   13   38       1
    42   14   39       1
    43   15   40       1
    44   16   41       1
    45   18   42       1
    46   22   43       1
    47   22   44       1
    48   24   45       1
@<TRIPOS>SUBSTRUCTURE
     1 SAH1706     1 GROUP             4 A     SAH     0 **** SAH A1706
