@<TRIPOS>MOLECULE
4egu_5GP_2_ligand
   36    38     1     0     0
SMALL
NO_CHARGES


@<TRIPOS>ATOM
     1 P          -12.7040     2.6160    29.1300 P.3          1 5GP201   0.0000
     2 O1P        -13.2370     4.0410    29.0300 O.co2        1 5GP201   0.0000
     3 O2P        -11.9340     2.3110    30.3880 O.co2        1 5GP201  -1.0000
     4 O3P        -11.9890     2.2610    27.8790 O.co2        1 5GP201  -1.0000
     5 O5'        -13.9560     1.6510    29.0620 O.3          1 5GP201   0.0000
     6 C5'        -14.6430     1.2340    30.2230 C.3          1 5GP201   0.0000
     7 C4'        -16.0020     0.8320    29.8200 C.3          1 5GP201   0.0000
     8 O4'        -16.5900     0.0720    30.8870 O.3          1 5GP201   0.0000
     9 C3'        -16.9330     2.0130    29.5350 C.3          1 5GP201   0.0000
    10 O3'        -17.3630     2.0010    28.1710 O.3          1 5GP201   0.0000
    11 C2'        -18.0920     1.8000    30.5280 C.3          1 5GP201   0.0000
    12 O2'        -19.3630     2.1630    30.0670 O.3          1 5GP201   0.0000
    13 C1'        -17.9720     0.3170    30.8900 C.3          1 5GP201   0.0000
    14 N9         -18.4660    -0.0350    32.2270 N.pl3        1 5GP201   0.0000
    15 C8         -18.0900     0.5890    33.3610 C.2          1 5GP201   0.0000
    16 N7         -18.6140    -0.0370    34.4240 N.2          1 5GP201   0.0000
    17 C5         -19.3150    -1.0870    33.9420 C.2          1 5GP201   0.0000
    18 C6         -20.0670    -2.0720    34.5530 C.2          1 5GP201   0.0000
    19 O6         -20.2390    -2.1560    35.8060 O.2          1 5GP201   0.0000
    20 N1         -20.6320    -2.9590    33.7310 N.pl3        1 5GP201   0.0000
    21 C2         -20.4960    -2.9340    32.3910 C.2          1 5GP201   0.0000
    22 N2         -21.1310    -3.8860    31.7040 N.pl3        1 5GP201   0.0000
    23 N3         -19.7860    -2.0060    31.7430 N.2          1 5GP201   0.0000
    24 C4         -19.2100    -1.0990    32.5500 C.2          1 5GP201   0.0000
    25 H5'1       -14.6912     1.9872    30.8791 H            1 5GP201   0.0000
    26 H5'2       -14.1681     0.4588    30.6397 H            1 5GP201   0.0000
    27 H4'        -15.9439     0.2576    29.0035 H            1 5GP201   0.0000
    28 H3'        -16.4645     2.8730    29.7372 H            1 5GP201   0.0000
    29 H5         -17.8541     1.1502    27.9838 H            1 5GP201   0.0000
    30 H2'        -17.8970     2.3353    31.3498 H            1 5GP201   0.0000
    31 H7         -19.5888     1.6258    29.2543 H            1 5GP201   0.0000
    32 H1'        -18.4233    -0.2448    30.1967 H            1 5GP201   0.0000
    33 H9         -17.5060     1.3997    33.4030 H            1 5GP201   0.0000
    34 H10        -21.1893    -3.6851    34.1338 H            1 5GP201   0.0000
    35 H11        -21.0629    -3.9127    30.7067 H            1 5GP201   0.0000
    36 H12        -21.6749    -4.5725    32.1866 H            1 5GP201   0.0000
@<TRIPOS>BOND
     1    1    2      ar
     2    1    3      ar
     3    1    4      ar
     4    1    5       1
     5    5    6       1
     6    6    7       1
     7    7    8       1
     8    7    9       1
     9    8   13       1
    10    9   10       1
    11    9   11       1
    12   11   12       1
    13   11   13       1
    14   13   14       1
    15   14   15       1
    16   14   24       1
    17   15   16       2
    18   16   17       1
    19   17   18       1
    20   17   24       2
    21   18   19       2
    22   18   20       1
    23   20   21       1
    24   21   22       1
    25   21   23       2
    26   23   24       1
    27   22   36       1
    28   22   35       1
    29    6   25       1
    30    6   26       1
    31    7   27       1
    32    9   28       1
    33   10   29       1
    34   11   30       1
    35   12   31       1
    36   13   32       1
    37   15   33       1
    38   20   34       1
@<TRIPOS>SUBSTRUCTURE
     1 5GP201      1 GROUP             4 B     5GP     0 **** 5GP B 201
