@<TRIPOS>MOLECULE
1qzy_TDE_1_ligand
   59    59     1     0     0
SMALL
NO_CHARGES


@<TRIPOS>ATOM
     1 C2          14.1910    28.9640    21.6390 C.2          1 TDE500   0.0000
     2 O8          14.8640    28.3480    22.4550 O.2          1 TDE500   0.0000
     3 C3          14.5510    28.8140    20.1430 C.3          1 TDE500   0.0000
     4 C4          13.4360    28.1150    19.3250 C.3          1 TDE500   0.0000
     5 C5          12.2480    29.1000    18.9510 C.3          1 TDE500   0.0000
     6 C6          11.3900    29.6520    20.1600 C.3          1 TDE500   0.0000
     7 C7          12.2500    30.5610    21.1470 C.3          1 TDE500   0.0000
     8 N1          13.1380    29.7660    22.0600 N.am         1 TDE500   0.0000
     9 O7          10.8790    28.5330    20.9380 O.3          1 TDE500   0.0000
    10 N9          15.7690    28.0420    19.9240 N.am         1 TDE500   0.0000
    11 C10         16.9900    28.6720    19.8680 C.2          1 TDE500   0.0000
    12 C12         18.2380    27.8420    19.6400 C.3          1 TDE500   0.0000
    13 O21         19.2700    28.1970    20.6130 O.3          1 TDE500   0.0000
    14 C25         18.9090    27.7930    21.9950 C.3          1 TDE500   0.0000
    15 C13         18.7580    28.2920    18.2250 C.3          1 TDE500   0.0000
    16 O22         17.8450    27.8890    17.2140 O.3          1 TDE500   0.0000
    17 C14         20.1670    27.7810    17.8520 C.3          1 TDE500   0.0000
    18 O23         20.1010    26.3280    17.7320 O.3          1 TDE500   0.0000
    19 C15         20.6370    28.3620    16.4910 C.3          1 TDE500   0.0000
    20 O24         21.8500    27.7070    16.0620 O.3          1 TDE500   0.0000
    21 C16         20.9120    29.8590    16.6410 C.2          1 TDE500   0.0000
    22 C17         20.1280    30.8200    16.1080 C.2          1 TDE500   0.0000
    23 C18         20.2870    32.3380    16.1850 C.3          1 TDE500   0.0000
    24 C21         18.8720    32.9310    15.9660 C.3          1 TDE500   0.0000
    25 C20         21.2530    32.7930    15.0490 C.3          1 TDE500   0.0000
    26 C19         20.8320    32.9170    17.5250 C.3          1 TDE500   0.0000
    27 O11         17.1300    29.8960    19.9990 O.2          1 TDE500   0.0000
    28 H1          14.6894    29.7285    19.7628 H            1 TDE500   0.0000
    29 H2          13.0675    27.3589    19.8659 H            1 TDE500   0.0000
    30 H3          13.8342    27.7575    18.4802 H            1 TDE500   0.0000
    31 H4          11.6291    28.6115    18.3359 H            1 TDE500   0.0000
    32 H5          12.6419    29.8852    18.4731 H            1 TDE500   0.0000
    33 H6          10.6224    30.1851    19.8043 H            1 TDE500   0.0000
    34 H7          11.6235    31.1038    21.7063 H            1 TDE500   0.0000
    35 H8          12.8222    31.1716    20.5994 H            1 TDE500   0.0000
    36 H9          12.9583    29.8176    23.0424 H            1 TDE500   0.0000
    37 H10          9.9887    28.2552    20.5772 H            1 TDE500   0.0000
    38 H11         15.7158    27.0495    19.8140 H            1 TDE500   0.0000
    39 H12         18.0357    26.8629    19.6615 H            1 TDE500   0.0000
    40 H13         19.6427    28.0560    22.6216 H            1 TDE500   0.0000
    41 H14         18.0609    28.2489    22.2648 H            1 TDE500   0.0000
    42 H15         18.7803    26.8019    22.0297 H            1 TDE500   0.0000
    43 H16         18.7897    29.2915    18.2203 H            1 TDE500   0.0000
    44 H17         17.5095    28.6955    16.7271 H            1 TDE500   0.0000
    45 H18         20.8177    28.0314    18.5688 H            1 TDE500   0.0000
    46 H19         19.8100    25.9344    18.6040 H            1 TDE500   0.0000
    47 H20         19.9229    28.2220    15.8051 H            1 TDE500   0.0000
    48 H21         22.1429    28.0889    15.1854 H            1 TDE500   0.0000
    49 H22         21.7170    30.1415    17.1627 H            1 TDE500   0.0000
    50 H23         19.3353    30.4943    15.5927 H            1 TDE500   0.0000
    51 H24         18.9189    33.9291    16.0069 H            1 TDE500   0.0000
    52 H25         18.5278    32.6499    15.0702 H            1 TDE500   0.0000
    53 H26         18.2564    32.5967    16.6796 H            1 TDE500   0.0000
    54 H27         21.3673    33.7857    15.0863 H            1 TDE500   0.0000
    55 H28         22.1415    32.3504    15.1698 H            1 TDE500   0.0000
    56 H29         20.8698    32.5347    14.1622 H            1 TDE500   0.0000
    57 H30         20.8927    33.9129    17.4576 H            1 TDE500   0.0000
    58 H31         20.2131    32.6705    18.2708 H            1 TDE500   0.0000
    59 H32         21.7399    32.5392    17.7066 H            1 TDE500   0.0000
@<TRIPOS>BOND
     1    1    2       2
     2    1    3       1
     3    1    8      am
     4    3    4       1
     5    3   10       1
     6    4    5       1
     7    5    6       1
     8    6    7       1
     9    6    9       1
    10    7    8       1
    11   10   11      am
    12   11   12       1
    13   11   27       2
    14   12   13       1
    15   12   15       1
    16   13   14       1
    17   15   16       1
    18   15   17       1
    19   17   18       1
    20   17   19       1
    21   19   20       1
    22   19   21       1
    23   21   22       2
    24   22   23       1
    25   23   24       1
    26   23   25       1
    27   23   26       1
    28    3   28       1
    29    4   29       1
    30    4   30       1
    31    5   31       1
    32    5   32       1
    33    6   33       1
    34    7   34       1
    35    7   35       1
    36    8   36       1
    37    9   37       1
    38   10   38       1
    39   12   39       1
    40   14   40       1
    41   14   41       1
    42   14   42       1
    43   15   43       1
    44   16   44       1
    45   17   45       1
    46   18   46       1
    47   19   47       1
    48   20   48       1
    49   21   49       1
    50   22   50       1
    51   24   51       1
    52   24   52       1
    53   24   53       1
    54   25   54       1
    55   25   55       1
    56   25   56       1
    57   26   57       1
    58   26   58       1
    59   26   59       1
@<TRIPOS>SUBSTRUCTURE
     1 TDE500      1 GROUP             4 A     TDE     0 **** TDE A 500
