@<TRIPOS>MOLECULE
3slk_NDP_1_ligand
   73    77     1     0     0
SMALL
NO_CHARGES


@<TRIPOS>ATOM
     1 PA          13.6090    98.0460    27.1390 P.3          1 NDP801   0.0000
     2 O1A         14.1740    96.7910    26.5070 O.co2        1 NDP801   0.0000
     3 O2A         13.5040    98.1510    28.6410 O.co2        1 NDP801  -1.0000
     4 O5B         14.4230    99.3240    26.6090 O.3          1 NDP801   0.0000
     5 C5B         15.1550    99.2620    25.3970 C.3          1 NDP801   0.0000
     6 C4B         16.6120    99.0480    25.7540 C.3          1 NDP801   0.0000
     7 O4B         17.3970    98.8750    24.5740 O.3          1 NDP801   0.0000
     8 C3B         17.2010   100.2390    26.4910 C.3          1 NDP801   0.0000
     9 O3B         17.1450   100.0280    27.9070 O.3          1 NDP801   0.0000
    10 C2B         18.6410   100.2560    26.0590 C.3          1 NDP801   0.0000
    11 O2B         19.3950    99.6260    27.0770 O.3          1 NDP801   0.0000
    12 C1B         18.7100    99.3790    24.8170 C.3          1 NDP801   0.0000
    13 N9A         19.2100   100.1590    23.6600 N.pl3        1 NDP801   0.0000
    14 C8A         20.0170    99.6750    22.7060 C.2          1 NDP801   0.0000
    15 N7A         20.3560   100.6770    21.8680 N.2          1 NDP801   0.0000
    16 C5A         19.7590   101.7990    22.3100 C.ar         1 NDP801   0.0000
    17 C6A         19.7400   103.1020    21.8460 C.ar         1 NDP801   0.0000
    18 N6A         20.4230   103.4320    20.7270 N.pl3        1 NDP801   0.0000
    19 N1A         19.0370   104.0400    22.5170 N.ar         1 NDP801   0.0000
    20 C2A         18.3550   103.7140    23.6220 C.ar         1 NDP801   0.0000
    21 N3A         18.3470   102.4520    24.0820 N.ar         1 NDP801   0.0000
    22 C4A         19.0530   101.4780    23.4490 C.ar         1 NDP801   0.0000
    23 O3          12.1510    98.3040    26.5090 O.3          1 NDP801   0.0000
    24 PN          11.2060    97.0360    26.2560 P.3          1 NDP801   0.0000
    25 O1N          9.8200    97.3620    26.7400 O.co2        1 NDP801   0.0000
    26 O2N         11.9460    95.8350    26.7890 O.co2        1 NDP801  -1.0000
    27 O5D         11.1630    96.9220    24.6630 O.3          1 NDP801   0.0000
    28 C5D         12.3250    96.5480    23.9310 C.3          1 NDP801   0.0000
    29 C4D         12.0360    96.8610    22.4770 C.3          1 NDP801   0.0000
    30 O4D         11.1390    95.8680    21.9710 O.3          1 NDP801   0.0000
    31 C3D         11.3120    98.1970    22.3840 C.3          1 NDP801   0.0000
    32 O3D         12.0090    99.0370    21.4660 O.3          1 NDP801   0.0000
    33 C2D          9.9330    97.8970    21.8400 C.3          1 NDP801   0.0000
    34 O2D          9.6320    98.7660    20.7490 O.3          1 NDP801   0.0000
    35 C1D         10.0200    96.4790    21.3280 C.3          1 NDP801   0.0000
    36 N1N          8.8120    95.7580    21.6770 N.ar         1 NDP801   1.0000
    37 C2N          8.0000    95.3560    20.6990 C.ar         1 NDP801   0.0000
    38 C3N          6.8610    94.6330    20.9900 C.ar         1 NDP801   0.0000
    39 C7N          5.9720    94.1770    19.8800 C.2          1 NDP801   0.0000
    40 O7N          4.9680    93.5460    20.1500 O.2          1 NDP801   0.0000
    41 N7N          6.3210    94.4540    18.6250 N.am         1 NDP801   0.0000
    42 C4N          6.5680    94.3130    22.3040 C.ar         1 NDP801   0.0000
    43 C5N          7.4390    94.7290    23.2990 C.ar         1 NDP801   0.0000
    44 C6N          8.5690    95.4590    22.9560 C.ar         1 NDP801   0.0000
    45 P2B         20.9290    99.2770    26.7960 P.3          1 NDP801   0.0000
    46 O1X         21.0100    99.2680    25.2880 O.co2        1 NDP801   0.0000
    47 O2X         21.1260    97.9330    27.4560 O.co2        1 NDP801  -1.0000
    48 O3X         21.6650   100.4200    27.4430 O.co2        1 NDP801  -1.0000
    49 H5B1        15.0499   100.1179    24.8907 H            1 NDP801   0.0000
    50 H5B2        14.8254    98.5013    24.8378 H            1 NDP801   0.0000
    51 H4B         16.6944    98.2325    26.3269 H            1 NDP801   0.0000
    52 H3B         16.7375   101.0871    26.2342 H            1 NDP801   0.0000
    53 H5          16.1930    99.9091    28.1889 H            1 NDP801   0.0000
    54 H2B         18.9641   101.1847    25.8772 H            1 NDP801   0.0000
    55 H1B         19.3294    98.6131    24.9894 H            1 NDP801   0.0000
    56 H8A         20.3192    98.7250    22.6277 H            1 NDP801   0.0000
    57 H6A1        20.4088   104.3742    20.3921 H            1 NDP801   0.0000
    58 H6A2        20.9424   102.7339    20.2341 H            1 NDP801   0.0000
    59 H2A         17.8441   104.4203    24.1120 H            1 NDP801   0.0000
    60 H5D1        12.5056    95.5711    24.0449 H            1 NDP801   0.0000
    61 H5D2        13.1159    97.0722    24.2467 H            1 NDP801   0.0000
    62 H4D         12.8818    96.8788    21.9438 H            1 NDP801   0.0000
    63 H3D         11.2511    98.6298    23.2834 H            1 NDP801   0.0000
    64 H16         11.3997    99.2856    20.7130 H            1 NDP801   0.0000
    65 H2D          9.2419    97.9746    22.5585 H            1 NDP801   0.0000
    66 H18          8.8176    99.3040    20.9663 H            1 NDP801   0.0000
    67 H1D         10.1486    96.4774    20.3363 H            1 NDP801   0.0000
    68 H2N          8.2175    95.5797    19.7489 H            1 NDP801   0.0000
    69 H7N1         5.7396    94.1576    17.8673 H            1 NDP801   0.0000
    70 H7N2         7.1645    94.9584    18.4403 H            1 NDP801   0.0000
    71 H4N          5.7450    93.7924    22.5311 H            1 NDP801   0.0000
    72 H5N          7.2549    94.5051    24.2561 H            1 NDP801   0.0000
    73 H6N          9.2025    95.7617    23.6681 H            1 NDP801   0.0000
@<TRIPOS>BOND
     1    1    2      ar
     2    1    3      ar
     3    1    4       1
     4    1   23       1
     5    4    5       1
     6    5    6       1
     7    6    7       1
     8    6    8       1
     9    7   12       1
    10    8    9       1
    11    8   10       1
    12   10   11       1
    13   10   12       1
    14   11   45       1
    15   12   13       1
    16   13   14       1
    17   13   22       1
    18   14   15       2
    19   15   16       1
    20   16   17      ar
    21   16   22      ar
    22   17   18       1
    23   17   19      ar
    24   19   20      ar
    25   20   21      ar
    26   21   22      ar
    27   23   24       1
    28   24   25      ar
    29   24   26      ar
    30   24   27       1
    31   27   28       1
    32   28   29       1
    33   29   30       1
    34   29   31       1
    35   30   35       1
    36   31   32       1
    37   31   33       1
    38   33   34       1
    39   33   35       1
    40   35   36       1
    41   36   37      ar
    42   36   44      ar
    43   37   38      ar
    44   38   39       1
    45   38   42      ar
    46   39   40       2
    47   39   41      am
    48   42   43      ar
    49   43   44      ar
    50   45   46      ar
    51   45   47      ar
    52   45   48      ar
    53   43   72       1
    54    5   49       1
    55    5   50       1
    56    6   51       1
    57    8   52       1
    58    9   53       1
    59   10   54       1
    60   12   55       1
    61   14   56       1
    62   18   57       1
    63   18   58       1
    64   20   59       1
    65   44   73       1
    66   28   60       1
    67   28   61       1
    68   29   62       1
    69   31   63       1
    70   32   64       1
    71   33   65       1
    72   34   66       1
    73   35   67       1
    74   37   68       1
    75   41   69       1
    76   41   70       1
    77   42   71       1
@<TRIPOS>SUBSTRUCTURE
     1 NDP801      1 GROUP             4 A     NDP     0 **** NDP A 801
