@<TRIPOS>MOLECULE
1ahi_CHO_2_ligand
   67    70     1     0     0
SMALL
NO_CHARGES


@<TRIPOS>ATOM
     1 C1          19.8930    11.1380    -9.4790 C.3          1 CHO301   0.0000
     2 C2          20.8290    11.4600    -8.3220 C.3          1 CHO301   0.0000
     3 C3          20.9840    12.9880    -8.1700 C.3          1 CHO301   0.0000
     4 O3          21.7700    13.3550    -7.0110 O.3          1 CHO301   0.0000
     5 C4          21.5780    13.5940    -9.4310 C.3          1 CHO301   0.0000
     6 C5          20.7180    13.2960   -10.6870 C.3          1 CHO301   0.0000
     7 C6          21.3740    13.9120   -11.9350 C.3          1 CHO301   0.0000
     8 C7          22.5040    13.0450   -12.4770 C.2          1 CHO301   0.0000
     9 O7          23.6760    13.4180   -12.5550 O.2          1 CHO301   0.0000
    10 C8          22.0520    11.6230   -12.8240 C.3          1 CHO301   0.0000
    11 C9          21.5600    10.9270   -11.5190 C.3          1 CHO301   0.0000
    12 C10         20.3130    11.7390   -10.8660 C.3          1 CHO301   0.0000
    13 C11         21.3540     9.4180   -11.7050 C.3          1 CHO301   0.0000
    14 C12         22.4720     8.6550   -12.4680 C.3          1 CHO301   0.0000
    15 C13         22.7900     9.2910   -13.8250 C.3          1 CHO301   0.0000
    16 C14         23.1610    10.7720   -13.5410 C.3          1 CHO301   0.0000
    17 C15         23.7290    11.2520   -14.9000 C.3          1 CHO301   0.0000
    18 C16         24.6050    10.0820   -15.3440 C.3          1 CHO301   0.0000
    19 C17         24.1680     8.8640   -14.5040 C.3          1 CHO301   0.0000
    20 C18         21.5980     9.1700   -14.8260 C.3          1 CHO301   0.0000
    21 C19         19.0350    11.5990   -11.7110 C.3          1 CHO301   0.0000
    22 C20         24.3640     7.5440   -15.2620 C.3          1 CHO301   0.0000
    23 C21         23.7430     6.3240   -14.5430 C.3          1 CHO301   0.0000
    24 C22         25.8620     7.3690   -15.4650 C.3          1 CHO301   0.0000
    25 C23         26.2640     6.1900   -16.3590 C.3          1 CHO301   0.0000
    26 C24         27.7990     6.1610   -16.6720 C.2          1 CHO301   0.0000
    27 O24         28.2650     7.0440   -17.3830 O.2          1 CHO301   0.0000
    28 N25         28.5020     5.2530   -16.1930 N.am         1 CHO301   0.0000
    29 H1          18.9859    11.4917    -9.2506 H            1 CHO301   0.0000
    30 H2          19.8489    10.1435    -9.5735 H            1 CHO301   0.0000
    31 H3          21.7252    11.0532    -8.4993 H            1 CHO301   0.0000
    32 H4          20.4521    11.0807    -7.4770 H            1 CHO301   0.0000
    33 H5          20.0695    13.3745    -8.0502 H            1 CHO301   0.0000
    34 H6          21.4632    14.2427    -6.6677 H            1 CHO301   0.0000
    35 H7          22.4929    13.2150    -9.5701 H            1 CHO301   0.0000
    36 H8          21.6421    14.5849    -9.3125 H            1 CHO301   0.0000
    37 H9          19.8587    13.7903   -10.5556 H            1 CHO301   0.0000
    38 H10         21.7433    14.8098   -11.6950 H            1 CHO301   0.0000
    39 H11         20.6787    14.0168   -12.6461 H            1 CHO301   0.0000
    40 H12         21.2717    11.6936   -13.4454 H            1 CHO301   0.0000
    41 H13         22.3118    11.0175   -10.8658 H            1 CHO301   0.0000
    42 H14         20.4995     9.2876   -12.2078 H            1 CHO301   0.0000
    43 H15         21.2720     9.0082   -10.7965 H            1 CHO301   0.0000
    44 H16         22.1735     7.7123   -12.6170 H            1 CHO301   0.0000
    45 H17         23.3015     8.6577   -11.9096 H            1 CHO301   0.0000
    46 H18         23.9377    10.7456   -12.9117 H            1 CHO301   0.0000
    47 H19         24.2719    12.0843   -14.7880 H            1 CHO301   0.0000
    48 H20         22.9939    11.4193   -15.5570 H            1 CHO301   0.0000
    49 H21         25.5689    10.2892   -15.1766 H            1 CHO301   0.0000
    50 H22         24.4678     9.8976   -16.3172 H            1 CHO301   0.0000
    51 H23         24.8234     8.8253   -13.7497 H            1 CHO301   0.0000
    52 H24         21.8480     9.5966   -15.6952 H            1 CHO301   0.0000
    53 H25         21.3864     8.2044   -14.9772 H            1 CHO301   0.0000
    54 H26         20.7960     9.6315   -14.4467 H            1 CHO301   0.0000
    55 H27         19.2010    11.9598   -12.6288 H            1 CHO301   0.0000
    56 H28         18.7806    10.6339   -11.7732 H            1 CHO301   0.0000
    57 H29         18.2927    12.1123   -11.2803 H            1 CHO301   0.0000
    58 H30         23.9337     7.6312   -16.1605 H            1 CHO301   0.0000
    59 H31         23.9045     5.4996   -15.0855 H            1 CHO301   0.0000
    60 H32         24.1641     6.2180   -13.6422 H            1 CHO301   0.0000
    61 H33         22.7588     6.4654   -14.4363 H            1 CHO301   0.0000
    62 H34         26.2826     7.2349   -14.5677 H            1 CHO301   0.0000
    63 H35         26.2185     8.2069   -15.8784 H            1 CHO301   0.0000
    64 H36         25.7632     6.2581   -17.2219 H            1 CHO301   0.0000
    65 H37         26.0162     5.3390   -15.8960 H            1 CHO301   0.0000
    66 H38         29.4827     5.2251   -16.3865 H            1 CHO301   0.0000
    67 H39         28.0863     4.5511   -15.6146 H            1 CHO301   0.0000
@<TRIPOS>BOND
     1    1    2       1
     2    1   12       1
     3    2    3       1
     4    3    4       1
     5    3    5       1
     6    5    6       1
     7    6    7       1
     8    6   12       1
     9    7    8       1
    10    8    9       2
    11    8   10       1
    12   10   11       1
    13   10   16       1
    14   11   12       1
    15   11   13       1
    16   12   21       1
    17   13   14       1
    18   14   15       1
    19   15   16       1
    20   15   19       1
    21   15   20       1
    22   16   17       1
    23   17   18       1
    24   18   19       1
    25   19   22       1
    26   22   23       1
    27   22   24       1
    28   24   25       1
    29   25   26       1
    30   26   27       2
    31   26   28      am
    32    1   29       1
    33    1   30       1
    34    2   31       1
    35    2   32       1
    36    3   33       1
    37    4   34       1
    38    5   35       1
    39    5   36       1
    40    6   37       1
    41    7   38       1
    42    7   39       1
    43   10   40       1
    44   11   41       1
    45   13   42       1
    46   13   43       1
    47   14   44       1
    48   14   45       1
    49   16   46       1
    50   17   47       1
    51   17   48       1
    52   18   49       1
    53   18   50       1
    54   19   51       1
    55   20   52       1
    56   20   53       1
    57   20   54       1
    58   21   55       1
    59   21   56       1
    60   21   57       1
    61   22   58       1
    62   23   59       1
    63   23   60       1
    64   23   61       1
    65   24   62       1
    66   24   63       1
    67   25   64       1
    68   25   65       1
    69   28   66       1
    70   28   67       1
@<TRIPOS>SUBSTRUCTURE
     1 CHO301      1 GROUP             4 B     CHO     0 **** CHO B 301
