@<TRIPOS>MOLECULE
3fnl_SHA_1_ligand
   17    17     1     0     0
SMALL
NO_CHARGES


@<TRIPOS>ATOM
     1 C1           5.0390     3.0340    29.1320 C.ar         1 SHA617   0.0000
     2 C2           4.4700     4.1110    29.7890 C.ar         1 SHA617   0.0000
     3 C3           3.6740     3.9170    30.9280 C.ar         1 SHA617   0.0000
     4 C4           3.4340     2.6290    31.4270 C.ar         1 SHA617   0.0000
     5 C5           3.9720     1.5000    30.8020 C.ar         1 SHA617   0.0000
     6 C6           4.7740     1.6690    29.6630 C.ar         1 SHA617   0.0000
     7 O6           5.2970     0.5830    29.0450 O.3          1 SHA617   0.0000
     8 C7           5.8860     3.2620    27.9020 C.2          1 SHA617   0.0000
     9 O7           5.9470     4.3870    27.4130 O.2          1 SHA617   0.0000
    10 N8           6.5500     2.2470    27.3220 N.am         1 SHA617   0.0000
    11 O9           7.4010     2.5110    26.2420 O.3          1 SHA617  -1.0000
    12 H1           4.6279     5.0378    29.4481 H            1 SHA617   0.0000
    13 H2           3.2726     4.7079    31.3900 H            1 SHA617   0.0000
    14 H3           2.8684     2.5159    32.2439 H            1 SHA617   0.0000
    15 H4           3.7879     0.5852    31.1615 H            1 SHA617   0.0000
    16 H5           5.1166    -0.3324    29.4049 H            1 SHA617   0.0000
    17 H6           6.4371     1.3122    27.6588 H            1 SHA617   0.0000
@<TRIPOS>BOND
     1    1    2      ar
     2    1    6      ar
     3    1    8       1
     4    2    3      ar
     5    3    4      ar
     6    4    5      ar
     7    5    6      ar
     8    6    7       1
     9    8    9       2
    10    8   10      am
    11   10   11       1
    12    2   12       1
    13    3   13       1
    14    4   14       1
    15    5   15       1
    16    7   16       1
    17   10   17       1
@<TRIPOS>SUBSTRUCTURE
     1 SHA617      1 GROUP             4 A     SHA     0 **** SHA A 617
