@<TRIPOS>MOLECULE
4v3i_ASP_LEU_THR_ARG_PRO_1_ligand
   86    86     5     0     0
SMALL
NO_CHARGES


@<TRIPOS>ATOM
     1 N            9.4940    35.5620   -16.9480 N.4          1 ASP199   1.0000
     2 CA           9.9540    35.1520   -15.6240 C.3          1 ASP199   0.0000
     3 C            9.1050    35.7940   -14.5320 C.2          1 ASP199   0.0000
     4 O            9.1530    37.0050   -14.3150 O.2          1 ASP199   0.0000
     5 CB          11.4240    35.5180   -15.4250 C.3          1 ASP199   0.0000
     6 CG          12.0560    34.7900   -14.2490 C.2          1 ASP199   0.0000
     7 OD1         11.3160    34.2620   -13.3930 O.co2        1 ASP199   0.0000
     8 OD2         13.3040    34.7350   -14.1870 O.co2        1 ASP199  -1.0000
     9 H1           8.5315    35.3140   -17.0581 H            1 ASP199   0.0000
    10 H2           9.5962    36.5521   -17.0446 H            1 ASP199   0.0000
    11 HA           9.8632    34.1588   -15.5517 H            1 ASP199   0.0000
    12 HB1         11.4896    36.5028   -15.2643 H            1 ASP199   0.0000
    13 HB2         11.9279    35.2816   -16.2558 H            1 ASP199   0.0000
    14 N            8.3360    34.9700   -13.8330 N.am         2 LEU200   0.0000
    15 CA           7.4640    35.4680   -12.7870 C.3          2 LEU200   0.0000
    16 C            8.2080    35.6690   -11.4710 C.2          2 LEU200   0.0000
    17 O            7.7040    36.3330   -10.5690 O.2          2 LEU200   0.0000
    18 CB           6.2920    34.5110   -12.5850 C.3          2 LEU200   0.0000
    19 CG           5.3430    34.3910   -13.7750 C.3          2 LEU200   0.0000
    20 CD1          4.6100    33.0610   -13.7240 C.3          2 LEU200   0.0000
    21 CD2          4.3580    35.5530   -13.7640 C.3          2 LEU200   0.0000
    22 H6           8.3579    33.9899   -14.0304 H            2 LEU200   0.0000
    23 H7           7.0992    36.3523   -13.0784 H            2 LEU200   0.0000
    24 H8           5.7637    34.8296   -11.7980 H            2 LEU200   0.0000
    25 H9           6.6631    33.6028   -12.3916 H            2 LEU200   0.0000
    26 HG           5.8783    34.4311   -14.6187 H            2 LEU200   0.0000
    27 HD11         3.9913    32.9912   -14.5065 H            2 LEU200   0.0000
    28 HD12         5.2734    32.3134   -13.7558 H            2 LEU200   0.0000
    29 HD13         4.0830    33.0031   -12.8761 H            2 LEU200   0.0000
    30 HD21         3.7379    35.4717   -14.5443 H            2 LEU200   0.0000
    31 HD22         3.8298    35.5342   -12.9151 H            2 LEU200   0.0000
    32 HD23         4.8597    36.4159   -13.8254 H            2 LEU200   0.0000
    33 N            9.4090    35.1050   -11.3650 N.am         3 THR201   0.0000
    34 CA          10.1520    35.1280   -10.1020 C.3          3 THR201   0.0000
    35 C           11.2360    36.2100   -10.0640 C.2          3 THR201   0.0000
    36 O           12.0780    36.2320    -9.1630 O.2          3 THR201   0.0000
    37 CB          10.8080    33.7590    -9.8120 C.3          3 THR201   0.0000
    38 OG1         11.8510    33.5110   -10.7620 O.3          3 THR201   0.0000
    39 CG2          9.7850    32.6440    -9.8940 C.3          3 THR201   0.0000
    40 H17          9.8122    34.6568   -12.1628 H            3 THR201   0.0000
    41 H18          9.5017    35.3188    -9.3666 H            3 THR201   0.0000
    42 HB          11.2011    33.7740    -8.8926 H            3 THR201   0.0000
    43 HG1         11.4665    33.5049   -11.6851 H            3 THR201   0.0000
    44 HG21        10.2298    31.7689    -9.7034 H            3 THR201   0.0000
    45 HG22         9.0626    32.8043    -9.2213 H            3 THR201   0.0000
    46 HG23         9.3875    32.6231   -10.8114 H            3 THR201   0.0000
    47 N           11.2040    37.1020   -11.0490 N.am         4 ARG202   0.0000
    48 CA          12.1070    38.2510   -11.1120 C.3          4 ARG202   0.0000
    49 C           11.7700    39.2380    -9.9630 C.2          4 ARG202   0.0000
    50 O           10.7030    39.1020    -9.3740 O.2          4 ARG202   0.0000
    51 CB          11.9750    38.8990   -12.4890 C.3          4 ARG202   0.0000
    52 CG          10.7430    39.7580   -12.5970 C.3          4 ARG202   0.0000
    53 CD          10.6450    40.4550   -13.9320 C.3          4 ARG202   0.0000
    54 NE           9.3680    41.1470   -14.0580 N.pl3        4 ARG202   1.0000
    55 CZ           8.2420    40.5580   -14.4430 C.cat        4 ARG202   0.0000
    56 NH1          8.2380    39.2650   -14.7430 N.pl3        4 ARG202   0.0000
    57 NH2          7.1220    41.2610   -14.5260 N.pl3        4 ARG202   0.0000
    58 H24         10.5322    36.9821   -11.7800 H            4 ARG202   0.0000
    59 H25         13.0467    37.9294   -10.9957 H            4 ARG202   0.0000
    60 H26         11.9270    38.1785   -13.1808 H            4 ARG202   0.0000
    61 H27         12.7802    39.4681   -12.6557 H            4 ARG202   0.0000
    62 H28         10.7687    40.4491   -11.8747 H            4 ARG202   0.0000
    63 HG2          9.9362    39.1796   -12.4764 H            4 ARG202   0.0000
    64 HD1         10.7249    39.7773   -14.6630 H            4 ARG202   0.0000
    65 HD2         11.3880    41.1196   -14.0109 H            4 ARG202   0.0000
    66 HE           9.3384    42.1229   -13.8417 H            4 ARG202   0.0000
    67 HH11         7.3899    38.8216   -15.0329 H            4 ARG202   0.0000
    68 HH12         9.0831    38.7343   -14.6791 H            4 ARG202   0.0000
    69 HH21         6.2738    40.8178   -14.8159 H            4 ARG202   0.0000
    70 HH22         7.1249    42.2348   -14.2987 H            4 ARG202   0.0000
    71 N           12.6590    40.2300    -9.6510 N.am         5 PRO203   0.0000
    72 CA          12.5520    41.0940    -8.4660 C.3          5 PRO203   0.0000
    73 C           11.4990    40.7620    -7.4080 C.2          5 PRO203   0.0000
    74 O           11.5590    41.3400    -6.3210 O.2          5 PRO203   0.0000
    75 CB          12.2470    42.4590    -9.1040 C.3          5 PRO203   0.0000
    76 CG          12.8370    42.3470   -10.5430 C.3          5 PRO203   0.0000
    77 CD          13.4740    40.9680   -10.6260 C.3          5 PRO203   0.0000
    78 H37         13.4471    41.1410    -8.0226 H            5 PRO203   0.0000
    79 H38         10.7796    40.0926    -7.5934 H            5 PRO203   0.0000
    80 H39         11.2611    42.6233    -9.1364 H            5 PRO203   0.0000
    81 H40         12.6912    43.1961    -8.5946 H            5 PRO203   0.0000
    82 H41         12.1108    42.4363   -11.2247 H            5 PRO203   0.0000
    83 H42         13.5245    43.0574   -10.6934 H            5 PRO203   0.0000
    84 H43         13.3920    40.5792   -11.5437 H            5 PRO203   0.0000
    85 H44         14.4373    40.9907   -10.3585 H            5 PRO203   0.0000
    86 H45         10.0393    35.1007   -17.6479 H            5 PRO203   0.0000
@<TRIPOS>BOND
     1    1    2       1
     2    2    5       1
     3    2    3       1
     4    5    6       1
     5    6    7      ar
     6    6    8      ar
     7    3    4       2
     8    1    9       1
     9    1   10       1
    10    2   11       1
    11    3   14      am
    12    5   12       1
    13    5   13       1
    14   14   15       1
    15   15   18       1
    16   15   16       1
    17   18   19       1
    18   19   20       1
    19   19   21       1
    20   16   17       2
    21   21   32       1
    22   14   22       1
    23   15   23       1
    24   16   33      am
    25   18   24       1
    26   18   25       1
    27   19   26       1
    28   20   27       1
    29   20   28       1
    30   20   29       1
    31   21   30       1
    32   21   31       1
    33   33   34       1
    34   34   37       1
    35   34   35       1
    36   37   39       1
    37   37   38       1
    38   35   36       2
    39   39   46       1
    40   33   40       1
    41   34   41       1
    42   35   47      am
    43   37   42       1
    44   38   43       1
    45   39   44       1
    46   39   45       1
    47   47   48       1
    48   48   51       1
    49   48   49       1
    50   51   52       1
    51   52   53       1
    52   53   54       1
    53   54   55      ar
    54   55   56      ar
    55   55   57      ar
    56   49   50       2
    57   57   70       1
    58   47   58       1
    59   48   59       1
    60   49   71      am
    61   51   60       1
    62   51   61       1
    63   52   62       1
    64   52   63       1
    65   53   64       1
    66   53   65       1
    67   54   66       1
    68   56   67       1
    69   56   68       1
    70   57   69       1
    71   71   77       1
    72   71   72       1
    73   77   76       1
    74   76   75       1
    75   75   72       1
    76   72   73       1
    77   73   74       2
    78   77   85       1
    79   72   78       1
    80   73   79       1
    81   75   80       1
    82   75   81       1
    83   76   82       1
    84   76   83       1
    85   77   84       1
    86    1   86       1
@<TRIPOS>SUBSTRUCTURE
     1 ASP199      1 RESIDUE           4 B     ASP     0 **** ASP B 199
     2 LEU200     14 RESIDUE           4 B     LEU     0 **** LEU B 200
     3 THR201     33 RESIDUE           4 B     THR     0 **** THR B 201
     4 ARG202     47 RESIDUE           4 B     ARG     0 **** ARG B 202
     5 PRO203     71 RESIDUE           4 B     PRO     0 **** PRO B 203
