@<TRIPOS>MOLECULE
2g0l_FLN_1_ligand
   27    29     1     0     0
SMALL
NO_CHARGES


@<TRIPOS>ATOM
     1 O1           3.8390     5.8360     4.6380 O.2          1 FLN114   0.0000
     2 C8A          4.5440     6.9810     4.3040 C.ar         1 FLN114   0.0000
     3 C4A          4.9140     7.2660     2.9800 C.ar         1 FLN114   0.0000
     4 C4           4.5400     6.2960     1.9070 C.2          1 FLN114   0.0000
     5 C3           3.8000     5.1100     2.3340 C.2          1 FLN114   0.0000
     6 C2           3.4840     4.9210     3.6480 C.2          1 FLN114   0.0000
     7 C1'          2.7430     3.8130     4.3460 C.ar         1 FLN114   0.0000
     8 C2'          1.3740     3.9220     4.5980 C.ar         1 FLN114   0.0000
     9 C3'          0.7020     2.8830     5.2510 C.ar         1 FLN114   0.0000
    10 C4'          1.3460     1.7100     5.6770 C.ar         1 FLN114   0.0000
    11 C5'          2.7180     1.6450     5.4020 C.ar         1 FLN114   0.0000
    12 C6'          3.4120     2.6630     4.7550 C.ar         1 FLN114   0.0000
    13 O4           4.8460     6.4980     0.7240 O.2          1 FLN114   0.0000
    14 C5           5.6350     8.4560     2.7090 C.ar         1 FLN114   0.0000
    15 C6           5.9610     9.3300     3.7620 C.ar         1 FLN114   0.0000
    16 C7           5.5690     9.0090     5.0800 C.ar         1 FLN114   0.0000
    17 C8           4.8620     7.8400     5.3540 C.ar         1 FLN114   0.0000
    18 H1           3.5223     4.4296     1.6558 H            1 FLN114   0.0000
    19 H2'          0.8752     4.7404     4.3126 H            1 FLN114   0.0000
    20 H3'         -0.2786     2.9798     5.4216 H            1 FLN114   0.0000
    21 H4'          0.8589     0.9722     6.1443 H            1 FLN114   0.0000
    22 H5'          3.2224     0.8288     5.6838 H            1 FLN114   0.0000
    23 H6'          4.3926     2.5682     4.5837 H            1 FLN114   0.0000
    24 H7           5.9109     8.6734     1.7727 H            1 FLN114   0.0000
    25 H8           6.4669    10.1728     3.5784 H            1 FLN114   0.0000
    26 H9           5.8023     9.6301     5.8282 H            1 FLN114   0.0000
    27 H10          4.5870     7.6208     6.2901 H            1 FLN114   0.0000
@<TRIPOS>BOND
     1    1    2       1
     2    1    6       1
     3    2    3      ar
     4    2   17      ar
     5    3    4       1
     6    3   14      ar
     7    4    5       1
     8    4   13       2
     9    5    6       2
    10    6    7       1
    11    7    8      ar
    12    7   12      ar
    13    8    9      ar
    14    9   10      ar
    15   10   11      ar
    16   11   12      ar
    17   14   15      ar
    18   15   16      ar
    19   16   17      ar
    20    5   18       1
    21    8   19       1
    22    9   20       1
    23   10   21       1
    24   11   22       1
    25   12   23       1
    26   14   24       1
    27   15   25       1
    28   16   26       1
    29   17   27       1
@<TRIPOS>SUBSTRUCTURE
     1 FLN114      1 GROUP             4 A     FLN     0 **** FLN A 114
