@<TRIPOS>MOLECULE
3l71_AZO_1_ligand
   49    51     1     0     0
SMALL
NO_CHARGES


@<TRIPOS>ATOM
     1 N1           7.5650   127.9630    86.7160 N.1          1 AZO2001   0.0000
     2 C1           7.7020   127.2240    85.8530 C.1          1 AZO2001   0.0000
     3 C2           7.8380   126.3310    84.7420 C.ar         1 AZO2001   0.0000
     4 C3           7.5440   124.9500    84.8960 C.ar         1 AZO2001   0.0000
     5 C4           7.6880   124.0740    83.7590 C.ar         1 AZO2001   0.0000
     6 C5           8.1220   124.5530    82.4730 C.ar         1 AZO2001   0.0000
     7 C6           8.4290   125.9300    82.2800 C.ar         1 AZO2001   0.0000
     8 C7           8.2980   126.8490    83.3910 C.ar         1 AZO2001   0.0000
     9 O1           8.5900   128.1910    83.2650 O.3          1 AZO2001   0.0000
    10 C8           7.9680   129.0500    82.4110 C.ar         1 AZO2001   0.0000
    11 C9           8.3990   130.3790    82.4120 C.ar         1 AZO2001   0.0000
    12 C10          7.7520   131.2590    81.5380 C.ar         1 AZO2001   0.0000
    13 N3           6.7410   130.7970    80.7270 N.ar         1 AZO2001   0.0000
    14 C11          6.3390   129.4980    80.7400 C.ar         1 AZO2001   0.0000
    15 N2           6.9550   128.6430    81.5790 N.ar         1 AZO2001   0.0000
    16 O2           8.1590   132.5750    81.5370 O.3          1 AZO2001   0.0000
    17 C12          7.6130   133.5730    80.7620 C.ar         1 AZO2001   0.0000
    18 C13          6.1900   133.8480    80.7760 C.ar         1 AZO2001   0.0000
    19 C14          5.6540   134.8830    79.9810 C.ar         1 AZO2001   0.0000
    20 C15          6.5080   135.6730    79.1570 C.ar         1 AZO2001   0.0000
    21 C16          7.9210   135.4410    79.1070 C.ar         1 AZO2001   0.0000
    22 C17          8.5080   134.4040    79.8900 C.ar         1 AZO2001   0.0000
    23 C18          9.9970   134.1540    79.8370 C.2          1 AZO2001   0.0000
    24 C19         10.5290   133.3900    78.8930 C.2          1 AZO2001   0.0000
    25 O3           9.8160   132.8650    78.0260 O.3          1 AZO2001   0.0000
    26 O4          11.9720   133.1660    78.8740 O.3          1 AZO2001   0.0000
    27 C20         12.5590   132.3460    77.8630 C.3          1 AZO2001   0.0000
    28 C21         10.9160   134.7720    80.8510 C.3          1 AZO2001   0.0000
    29 O5          10.2630   135.5560    81.7840 O.3          1 AZO2001   0.0000
    30 C22         11.2200   136.0990    82.6480 C.3          1 AZO2001   0.0000
    31 H1           7.2419   124.5905    85.7789 H            1 AZO2001   0.0000
    32 H2           7.4795   123.1021    83.8679 H            1 AZO2001   0.0000
    33 H3           8.2086   123.9137    81.7090 H            1 AZO2001   0.0000
    34 H4           8.7322   126.2591    81.3857 H            1 AZO2001   0.0000
    35 H5           9.1377   130.6876    83.0113 H            1 AZO2001   0.0000
    36 H6           5.6027   129.1846    80.1403 H            1 AZO2001   0.0000
    37 H7           5.5840   133.3004    81.3530 H            1 AZO2001   0.0000
    38 H8           4.6705   135.0633    79.9956 H            1 AZO2001   0.0000
    39 H9           6.1124   136.4048    78.6020 H            1 AZO2001   0.0000
    40 H10          8.4982   136.0090    78.5202 H            1 AZO2001   0.0000
    41 H11          8.8274   133.0156    78.0332 H            1 AZO2001   0.0000
    42 H12         13.5484   132.3027    78.0018 H            1 AZO2001   0.0000
    43 H13         12.1743   131.4245    77.9162 H            1 AZO2001   0.0000
    44 H14         12.3654   132.7366    76.9630 H            1 AZO2001   0.0000
    45 H15         11.5812   135.3421    80.3689 H            1 AZO2001   0.0000
    46 H16         11.3938   134.0380    81.3336 H            1 AZO2001   0.0000
    47 H17         10.7659   136.6705    83.3315 H            1 AZO2001   0.0000
    48 H18         11.7132   135.3595    83.1062 H            1 AZO2001   0.0000
    49 H19         11.8650   136.6551    82.1238 H            1 AZO2001   0.0000
@<TRIPOS>BOND
     1    1    2       3
     2    2    3       1
     3    3    4      ar
     4    3    8      ar
     5    4    5      ar
     6    5    6      ar
     7    6    7      ar
     8    7    8      ar
     9    8    9       1
    10    9   10       1
    11   10   11      ar
    12   10   15      ar
    13   11   12      ar
    14   12   13      ar
    15   12   16       1
    16   13   14      ar
    17   14   15      ar
    18   16   17       1
    19   17   18      ar
    20   17   22      ar
    21   18   19      ar
    22   19   20      ar
    23   20   21      ar
    24   21   22      ar
    25   22   23       1
    26   23   24       2
    27   23   28       1
    28   24   25       1
    29   24   26       1
    30   26   27       1
    31   28   29       1
    32   29   30       1
    33    4   31       1
    34    5   32       1
    35    6   33       1
    36    7   34       1
    37   11   35       1
    38   14   36       1
    39   18   37       1
    40   19   38       1
    41   20   39       1
    42   21   40       1
    43   25   41       1
    44   27   42       1
    45   27   43       1
    46   27   44       1
    47   28   45       1
    48   28   46       1
    49   30   47       1
    50   30   48       1
    51   30   49       1
@<TRIPOS>SUBSTRUCTURE
     1 AZO2001     1 GROUP             4 C     AZO     0 **** AZO C2001
