@<TRIPOS>MOLECULE
4afh_L0B_2_ligand
   53    55     1     0     0
SMALL
NO_CHARGES


@<TRIPOS>ATOM
     1 O1         -27.3470    86.7940    14.7830 O.2          1 L0B1218   0.0000
     2 C3         -28.0710    85.8180    14.9130 C.2          1 L0B1218   0.0000
     3 C21        -35.7080    88.9830     7.9840 C.ar         1 L0B1218   0.0000
     4 C10        -35.5630    87.7300     8.5870 C.ar         1 L0B1218   0.0000
     5 C19        -34.4890    87.4850     9.4480 C.ar         1 L0B1218   0.0000
     6 C17        -33.5620    88.4910     9.7260 C.ar         1 L0B1218   0.0000
     7 C18        -33.7180    89.7410     9.1290 C.ar         1 L0B1218   0.0000
     8 C20        -34.7900    89.9880     8.2610 C.ar         1 L0B1218   0.0000
     9 C14        -31.3570    87.4410     9.8620 C.3          1 L0B1218   0.0000
    10 C11        -30.0690    87.1840    10.6620 C.3          1 L0B1218   0.0000
    11 C13        -29.0340    86.4950     9.7850 C.3          1 L0B1218   0.0000
    12 C15        -27.6740    86.3920    10.4840 C.3          1 L0B1218   0.0000
    13 C12        -27.8870    85.6670    11.8050 C.3          1 L0B1218   0.0000
    14 C9         -28.9980    86.3080    12.6370 C.3          1 L0B1218   0.0000
    15 N1         -30.2940    86.4020    11.9070 N.4          1 L0B1218   1.0000
    16 C22        -30.9090    85.0790    11.6510 C.3          1 L0B1218   0.0000
    17 C8         -29.1770    85.5080    13.9390 C.3          1 L0B1218   0.0000
    18 C16        -32.4080    88.2380    10.6350 C.3          1 L0B1218   0.0000
    19 O2         -32.7850    87.4920    11.8090 O.3          1 L0B1218   0.0000
    20 C4         -28.7760    83.8910    16.3640 C.ar         1 L0B1218   0.0000
    21 C1         -27.8400    84.8780    16.0640 C.ar         1 L0B1218   0.0000
    22 C2         -26.6840    84.9910    16.8090 C.ar         1 L0B1218   0.0000
    23 C5         -26.4640    84.1160    17.8690 C.ar         1 L0B1218   0.0000
    24 C6         -27.4020    83.1310    18.1730 C.ar         1 L0B1218   0.0000
    25 C7         -28.5590    83.0150    17.4250 C.ar         1 L0B1218   0.0000
    26 H1         -36.4680    89.1547     7.3571 H            1 L0B1218   0.0000
    27 H2         -36.2290    87.0073     8.4021 H            1 L0B1218   0.0000
    28 H3         -34.3842    86.5833     9.8674 H            1 L0B1218   0.0000
    29 H4         -33.0590    90.4680     9.3219 H            1 L0B1218   0.0000
    30 H5         -34.8943    90.8892     7.8403 H            1 L0B1218   0.0000
    31 H6         -31.7529    86.5585     9.6080 H            1 L0B1218   0.0000
    32 H7         -31.1192    87.9501     9.0348 H            1 L0B1218   0.0000
    33 H8         -29.6960    88.0731    10.9273 H            1 L0B1218   0.0000
    34 H9         -28.9250    87.0190     8.9403 H            1 L0B1218   0.0000
    35 H10        -29.3563    85.5739     9.5666 H            1 L0B1218   0.0000
    36 H11        -27.3076    87.3070    10.6528 H            1 L0B1218   0.0000
    37 H12        -27.0352    85.8774     9.9121 H            1 L0B1218   0.0000
    38 H13        -27.0355    85.6931    12.3286 H            1 L0B1218   0.0000
    39 H14        -28.1329    84.7164    11.6156 H            1 L0B1218   0.0000
    40 H15        -28.7098    87.2345    12.8788 H            1 L0B1218   0.0000
    41 H16        -31.0375    84.5977    12.5181 H            1 L0B1218   0.0000
    42 H17        -31.7951    85.2041    11.2047 H            1 L0B1218   0.0000
    43 H18        -30.3096    84.5420    11.0574 H            1 L0B1218   0.0000
    44 H19        -30.0552    85.7476    14.3530 H            1 L0B1218   0.0000
    45 H20        -29.1636    84.5306    13.7278 H            1 L0B1218   0.0000
    46 H21        -32.0142    89.1133    10.9157 H            1 L0B1218   0.0000
    47 H22        -33.0532    88.1256    12.5347 H            1 L0B1218   0.0000
    48 H23        -29.6079    83.8109    15.8149 H            1 L0B1218   0.0000
    49 H24        -26.0096    85.6959    16.5891 H            1 L0B1218   0.0000
    50 H25        -25.6296    84.1945    18.4146 H            1 L0B1218   0.0000
    51 H26        -27.2375    82.5054    18.9356 H            1 L0B1218   0.0000
    52 H27        -29.2331    82.3094    17.6435 H            1 L0B1218   0.0000
    53 H28        -30.9263    86.9229    12.4805 H            1 L0B1218   0.0000
@<TRIPOS>BOND
     1    1    2       2
     2    2   17       1
     3    2   21       1
     4    3    4      ar
     5    3    8      ar
     6    4    5      ar
     7    5    6      ar
     8    6    7      ar
     9    6   18       1
    10    7    8      ar
    11    9   10       1
    12    9   18       1
    13   10   11       1
    14   10   15       1
    15   11   12       1
    16   12   13       1
    17   13   14       1
    18   14   15       1
    19   14   17       1
    20   15   16       1
    21   18   19       1
    22   20   21      ar
    23   20   25      ar
    24   21   22      ar
    25   22   23      ar
    26   23   24      ar
    27   24   25      ar
    28    3   26       1
    29    4   27       1
    30    5   28       1
    31    7   29       1
    32    8   30       1
    33    9   31       1
    34    9   32       1
    35   10   33       1
    36   11   34       1
    37   11   35       1
    38   12   36       1
    39   12   37       1
    40   13   38       1
    41   13   39       1
    42   14   40       1
    43   16   41       1
    44   16   42       1
    45   16   43       1
    46   17   44       1
    47   17   45       1
    48   18   46       1
    49   19   47       1
    50   20   48       1
    51   22   49       1
    52   23   50       1
    53   24   51       1
    54   25   52       1
    55   15   53       1
@<TRIPOS>SUBSTRUCTURE
     1 L0B1218     1 GROUP             4 B     L0B     0 **** L0B B1218
