@<TRIPOS>MOLECULE
4mam_A12_1_ligand
   41    43     1     0     0
SMALL
NO_CHARGES


@<TRIPOS>ATOM
     1 PB         -24.1450   -11.0990    14.8510 P.3          1 A12401   0.0000
     2 O1B        -25.4330   -10.4370    14.3900 O.co2        1 A12401   0.0000
     3 O2B        -23.1070   -10.0770    15.2200 O.co2        1 A12401  -1.0000
     4 O3B        -23.6100   -12.1410    13.9150 O.co2        1 A12401  -1.0000
     5 PA         -24.8660   -11.2750    17.7700 P.3          1 A12401   0.0000
     6 O1A        -23.5930   -11.1420    18.5560 O.co2        1 A12401   0.0000
     7 O2A        -25.6160    -9.9760    17.6000 O.co2        1 A12401  -1.0000
     8 C3A        -24.5350   -12.1070    16.2410 C.3          1 A12401   0.0000
     9 O5'        -25.7750   -12.4000    18.4000 O.3          1 A12401   0.0000
    10 C5'        -26.9410   -12.7500    17.6560 C.3          1 A12401   0.0000
    11 C4'        -28.0450   -12.9420    18.6210 C.3          1 A12401   0.0000
    12 O4'        -27.5770   -13.9280    19.6560 O.3          1 A12401   0.0000
    13 C3'        -28.3760   -11.7270    19.3860 C.3          1 A12401   0.0000
    14 O3'        -29.2950   -10.8810    18.5900 O.3          1 A12401   0.0000
    15 C2'        -28.9670   -12.2640    20.5940 C.3          1 A12401   0.0000
    16 O2'        -30.3120   -12.7610    20.3060 O.3          1 A12401   0.0000
    17 C1'        -28.1000   -13.4130    20.9470 C.3          1 A12401   0.0000
    18 N9         -27.0430   -12.9960    21.7530 N.pl3        1 A12401   0.0000
    19 C8         -25.8180   -12.4630    21.3810 C.2          1 A12401   0.0000
    20 N7         -25.0870   -12.1710    22.4570 N.2          1 A12401   0.0000
    21 C5         -25.8060   -12.5050    23.5780 C.ar         1 A12401   0.0000
    22 C6         -25.5550   -12.4350    24.9340 C.ar         1 A12401   0.0000
    23 N6         -24.3230   -11.9290    25.4250 N.pl3        1 A12401   0.0000
    24 N1         -26.4820   -12.8560    25.7860 N.ar         1 A12401   0.0000
    25 C2         -27.6660   -13.3560    25.3460 C.ar         1 A12401   0.0000
    26 N3         -27.9520   -13.4420    24.0350 N.ar         1 A12401   0.0000
    27 C4         -27.0540   -13.0310    23.1390 C.ar         1 A12401   0.0000
    28 H3A1       -23.7619   -12.7226    16.3937 H            1 A12401   0.0000
    29 H3A2       -25.3464   -12.6426    16.0071 H            1 A12401   0.0000
    30 H5'1       -26.7805   -13.5965    17.1484 H            1 A12401   0.0000
    31 H5'2       -27.1706   -12.0163    17.0165 H            1 A12401   0.0000
    32 H4'        -28.8578   -13.2896    18.1534 H            1 A12401   0.0000
    33 H3'        -27.5427   -11.2196    19.6055 H            1 A12401   0.0000
    34 H7         -29.8879   -10.3621    19.2058 H            1 A12401   0.0000
    35 H2'        -28.9811   -11.5820    21.3252 H            1 A12401   0.0000
    36 H9         -30.9756   -12.0255    20.4430 H            1 A12401   0.0000
    37 H1'        -28.6330   -14.1198    21.4121 H            1 A12401   0.0000
    38 H11        -25.5237   -12.3178    20.4364 H            1 A12401   0.0000
    39 H12        -24.1575   -11.8853    26.4102 H            1 A12401   0.0000
    40 H13        -23.6205   -11.6163    24.7857 H            1 A12401   0.0000
    41 H14        -28.3418   -13.6679    26.0139 H            1 A12401   0.0000
@<TRIPOS>BOND
     1    1    2      ar
     2    1    3      ar
     3    1    4      ar
     4    1    8       1
     5    5    6      ar
     6    5    7      ar
     7    5    8       1
     8    5    9       1
     9    9   10       1
    10   10   11       1
    11   11   12       1
    12   11   13       1
    13   12   17       1
    14   13   14       1
    15   13   15       1
    16   15   16       1
    17   15   17       1
    18   17   18       1
    19   18   19       1
    20   18   27       1
    21   19   20       2
    22   20   21       1
    23   21   22      ar
    24   21   27      ar
    25   22   23       1
    26   22   24      ar
    27   24   25      ar
    28   25   26      ar
    29   26   27      ar
    30   25   41       1
    31   23   40       1
    32   23   39       1
    33    8   28       1
    34    8   29       1
    35   10   30       1
    36   10   31       1
    37   11   32       1
    38   13   33       1
    39   14   34       1
    40   15   35       1
    41   16   36       1
    42   17   37       1
    43   19   38       1
@<TRIPOS>SUBSTRUCTURE
     1 A12401      1 GROUP             4 A     A12     0 **** A12 A 401
