@<TRIPOS>MOLECULE
3vvp_BNU_1_ligand
   41    43     1     0     0
SMALL
NO_CHARGES


@<TRIPOS>ATOM
     1 BR        -120.4160    46.8410     3.0690 Br           1 BNU1001   0.0000
     2 CAP       -121.8010    47.8650     2.3320 C.ar         1 BNU1001   0.0000
     3 CAF       -121.7280    47.9610     0.9390 C.ar         1 BNU1001   0.0000
     4 CAT       -122.6780    48.6620     0.2430 C.ar         1 BNU1001   0.0000
     5 CAS       -122.5700    48.7450    -1.1280 C.2          1 BNU1001   0.0000
     6 OAC       -121.6330    48.1760    -1.6910 O.2          1 BNU1001   0.0000
     7 CAQ       -123.5420    49.4600    -1.8420 C.2          1 BNU1001   0.0000
     8 CAO       -123.5010    49.5990    -3.2360 C.2          1 BNU1001   0.0000
     9 OAD       -122.5550    49.1430    -3.9150 O.co2        1 BNU1001   0.0000
    10 OAB       -124.4030    50.2270    -3.7970 O.co2        1 BNU1001  -1.0000
    11 CAH       -124.5750    50.0790    -1.1370 C.2          1 BNU1001   0.0000
    12 NAW       -124.6380    49.9750     0.2550 N.pl3        1 BNU1001   0.0000
    13 CAI       -125.7160    50.6060     1.0300 C.3          1 BNU1001   0.0000
    14 CAA       -127.0540    50.2170     0.4450 C.3          1 BNU1001   0.0000
    15 CAU       -123.7100    49.2790     0.9140 C.ar         1 BNU1001   0.0000
    16 CAG       -123.7990    49.1860     2.2930 C.ar         1 BNU1001   0.0000
    17 CAR       -122.8670    48.4710     3.0480 C.ar         1 BNU1001   0.0000
    18 NAV       -123.0810    48.4940     4.3880 N.pl3        1 BNU1001   0.0000
    19 CAL       -122.0850    48.2910     5.4590 C.3          1 BNU1001   0.0000
    20 CAJ       -121.6380    49.6900     5.9170 C.3          1 BNU1001   0.0000
    21 NAN       -122.8110    50.4210     6.4330 N.4          1 BNU1001   1.0000
    22 CAK       -123.8380    50.5740     5.3790 C.3          1 BNU1001   0.0000
    23 CAM       -124.2860    49.2040     4.9320 C.3          1 BNU1001   0.0000
    24 HAF       -120.9790    47.5160     0.4482 H            1 BNU1001   0.0000
    25 HAH       -125.2727    50.5989    -1.6298 H            1 BNU1001   0.0000
    26 HAI1      -125.6135    51.6001     0.9948 H            1 BNU1001   0.0000
    27 HAI2      -125.6663    50.2993     1.9805 H            1 BNU1001   0.0000
    28 HAA1      -127.7864    50.6469     0.9731 H            1 BNU1001   0.0000
    29 HAA2      -127.1041    50.5238    -0.5055 H            1 BNU1001   0.0000
    30 HAA3      -127.1569    49.2229     0.4803 H            1 BNU1001   0.0000
    31 HAG       -124.5536    49.6448     2.7622 H            1 BNU1001   0.0000
    32 HAL1      -121.3023    47.7764     5.1089 H            1 BNU1001   0.0000
    33 HAL2      -122.4964    47.7934     6.2226 H            1 BNU1001   0.0000
    34 HAJ1      -121.2462    50.1874     5.1430 H            1 BNU1001   0.0000
    35 HAJ2      -120.9519    49.6035     6.6393 H            1 BNU1001   0.0000
    36 HAN1      -122.5225    51.3266     6.7440 H            1 BNU1001   0.0000
    37 HAK1      -123.4507    51.0707     4.6023 H            1 BNU1001   0.0000
    38 HAK2      -124.6196    51.0809     5.7427 H            1 BNU1001   0.0000
    39 HAM1      -124.6604    48.6966     5.7081 H            1 BNU1001   0.0000
    40 HAM2      -124.9837    49.2876     4.2205 H            1 BNU1001   0.0000
    41 HAN2      -123.2020    49.9137     7.2010 H            1 BNU1001   0.0000
@<TRIPOS>BOND
     1    1    2       1
     2    2    3      ar
     3    2   17      ar
     4    3    4      ar
     5    4    5       1
     6    4   15      ar
     7    5    6       2
     8    5    7       1
     9    7    8       1
    10    7   11       2
    11    8    9      ar
    12    8   10      ar
    13   11   12       1
    14   12   13       1
    15   12   15       1
    16   13   14       1
    17   15   16      ar
    18   16   17      ar
    19   17   18       1
    20   18   19       1
    21   18   23       1
    22   19   20       1
    23   20   21       1
    24   21   22       1
    25   22   23       1
    26    3   24       1
    27   23   40       1
    28   11   25       1
    29   13   26       1
    30   13   27       1
    31   14   28       1
    32   14   29       1
    33   14   30       1
    34   16   31       1
    35   19   32       1
    36   19   33       1
    37   20   34       1
    38   20   35       1
    39   21   36       1
    40   22   37       1
    41   22   38       1
    42   23   39       1
    43   21   41       1
@<TRIPOS>SUBSTRUCTURE
     1 BNU1001     1 GROUP             4 A     BNU     0 **** BNU A1001
