@<TRIPOS>MOLECULE
4ttb_FMN_1_ligand
   50    52     1     0     0
SMALL
NO_CHARGES


@<TRIPOS>ATOM
     1 N1         -19.3300    -1.3240   -15.2390 N.2          1 FMN301   0.0000
     2 C2         -18.7610    -2.2400   -16.0940 C.2          1 FMN301   0.0000
     3 O2         -18.1980    -1.8990   -17.1180 O.2          1 FMN301   0.0000
     4 N3         -18.8580    -3.5560   -15.7360 N.pl3        1 FMN301   0.0000
     5 C4         -19.4710    -4.0510   -14.6050 C.2          1 FMN301   0.0000
     6 O4         -19.4820    -5.2530   -14.4100 O.2          1 FMN301   0.0000
     7 C4A        -20.0260    -3.0710   -13.7830 C.2          1 FMN301   0.0000
     8 N5         -20.6340    -3.4710   -12.6670 N.2          1 FMN301   0.0000
     9 C5A        -21.2030    -2.5330   -11.8160 C.ar         1 FMN301   0.0000
    10 C6         -21.8460    -2.9630   -10.6370 C.ar         1 FMN301   0.0000
    11 C7         -22.4160    -2.0360    -9.7800 C.ar         1 FMN301   0.0000
    12 C7M        -23.0930    -2.5560    -8.5370 C.3          1 FMN301   0.0000
    13 C8         -22.3630    -0.6570   -10.0700 C.ar         1 FMN301   0.0000
    14 C8M        -22.9850     0.3810    -9.1270 C.3          1 FMN301   0.0000
    15 C9         -21.7320    -0.2210   -11.2290 C.ar         1 FMN301   0.0000
    16 C9A        -21.1450    -1.1690   -12.1140 C.ar         1 FMN301   0.0000
    17 N10        -20.4950    -0.7840   -13.3050 N.pl3        1 FMN301   0.0000
    18 C10        -19.9550    -1.7390   -14.1010 C.2          1 FMN301   0.0000
    19 C1'        -20.3890     0.6440   -13.6820 C.3          1 FMN301   0.0000
    20 C2'        -21.6010     1.1810   -14.3990 C.3          1 FMN301   0.0000
    21 O2'        -21.6720     0.6560   -15.7090 O.3          1 FMN301   0.0000
    22 C3'        -21.5070     2.7370   -14.4530 C.3          1 FMN301   0.0000
    23 O3'        -21.3890     3.2390   -13.1550 O.3          1 FMN301   0.0000
    24 C4'        -22.7700     3.3190   -15.0870 C.3          1 FMN301   0.0000
    25 O4'        -22.8490     2.8950   -16.4230 O.3          1 FMN301   0.0000
    26 C5'        -22.7860     4.8300   -15.0240 C.3          1 FMN301   0.0000
    27 O5'        -21.5570     5.3450   -15.5510 O.3          1 FMN301   0.0000
    28 P          -20.6320     6.3180   -14.6270 P.3          1 FMN301   0.0000
    29 O1P        -19.4090     6.6820   -15.4450 O.co2        1 FMN301   0.0000
    30 O2P        -20.2330     5.5350   -13.3710 O.co2        1 FMN301  -1.0000
    31 O3P        -21.4120     7.5960   -14.2510 O.co2        1 FMN301  -1.0000
    32 H1         -18.4442    -4.2240   -16.3545 H            1 FMN301   0.0000
    33 H2         -21.8905    -3.9380   -10.4194 H            1 FMN301   0.0000
    34 H7M1       -23.4589    -1.7884    -8.0108 H            1 FMN301   0.0000
    35 H7M2       -23.8397    -3.1689    -8.7957 H            1 FMN301   0.0000
    36 H7M3       -22.4294    -3.0556    -7.9802 H            1 FMN301   0.0000
    37 H8M1       -22.8460     1.2976    -9.5019 H            1 FMN301   0.0000
    38 H8M2       -23.9648     0.2034    -9.0355 H            1 FMN301   0.0000
    39 H8M3       -22.5496     0.3186    -8.2289 H            1 FMN301   0.0000
    40 H9         -21.6905     0.7555   -11.4406 H            1 FMN301   0.0000
    41 H1'1       -19.5956     0.7529   -14.2809 H            1 FMN301   0.0000
    42 H1'2       -20.2537     1.1799   -12.8486 H            1 FMN301   0.0000
    43 H2'        -22.4239     0.9189   -13.8949 H            1 FMN301   0.0000
    44 H13        -20.8973     0.0432   -15.8650 H            1 FMN301   0.0000
    45 H3'        -20.7077     3.0060   -14.9904 H            1 FMN301   0.0000
    46 H15        -20.8635     4.0896   -13.1731 H            1 FMN301   0.0000
    47 H4'        -23.5661     2.9697   -14.5929 H            1 FMN301   0.0000
    48 H17        -22.4130     1.9998   -16.5149 H            1 FMN301   0.0000
    49 H5'1       -22.8892     5.1226   -14.0733 H            1 FMN301   0.0000
    50 H5'2       -23.5519     5.1777   -15.5648 H            1 FMN301   0.0000
@<TRIPOS>BOND
     1    1    2       1
     2    1   18       2
     3    2    3       2
     4    2    4       1
     5    4    5       1
     6    5    6       2
     7    5    7       1
     8    7    8       2
     9    7   18       1
    10    8    9       1
    11    9   10      ar
    12    9   16      ar
    13   10   11      ar
    14   11   12       1
    15   11   13      ar
    16   13   14       1
    17   13   15      ar
    18   15   16      ar
    19   16   17       1
    20   17   18       1
    21   17   19       1
    22   19   20       1
    23   20   21       1
    24   20   22       1
    25   22   23       1
    26   22   24       1
    27   24   25       1
    28   24   26       1
    29   26   27       1
    30   27   28       1
    31   28   29      ar
    32   28   30      ar
    33   28   31      ar
    34    4   32       1
    35   10   33       1
    36   12   34       1
    37   12   35       1
    38   12   36       1
    39   14   37       1
    40   14   38       1
    41   14   39       1
    42   15   40       1
    43   19   41       1
    44   19   42       1
    45   20   43       1
    46   21   44       1
    47   22   45       1
    48   23   46       1
    49   24   47       1
    50   25   48       1
    51   26   49       1
    52   26   50       1
@<TRIPOS>SUBSTRUCTURE
     1 FMN301      1 GROUP             4 A     FMN     0 **** FMN A 301
