@<TRIPOS>MOLECULE
4jkt_04A_1_ligand
   59    62     1     0     0
SMALL
NO_CHARGES


@<TRIPOS>ATOM
     1 OAA         27.7460   -27.1070    -3.7930 O.2          1 04A701   0.0000
     2 OAB         14.3820   -26.5930    -0.0930 O.2          1 04A701   0.0000
     3 CAC         29.4820   -31.0090    -2.1260 C.ar         1 04A701   0.0000
     4 CAD         14.3500   -31.5390    -0.9900 C.ar         1 04A701   0.0000
     5 CAE         29.9070   -29.8820    -1.4840 C.ar         1 04A701   0.0000
     6 CAF         28.1070   -31.0800    -2.6960 C.ar         1 04A701   0.0000
     7 CAG         13.0490   -30.9200    -0.6070 C.ar         1 04A701   0.0000
     8 CAH         15.5220   -31.0320    -0.5080 C.ar         1 04A701   0.0000
     9 CAI         28.9890   -28.7150    -1.3450 C.ar         1 04A701   0.0000
    10 CAJ         27.2700   -30.0110    -2.5680 C.ar         1 04A701   0.0000
    11 CAK         13.0300   -29.8420     0.2300 C.ar         1 04A701   0.0000
    12 CAL         15.5000   -29.8560     0.4080 C.ar         1 04A701   0.0000
    13 CAM         21.5880   -23.9440     0.1980 C.3          1 04A701   0.0000
    14 CAN         19.7710   -22.3890    -1.3000 C.3          1 04A701   0.0000
    15 CAO         22.6650   -22.9550    -0.0900 C.3          1 04A701   0.0000
    16 CAP         19.0250   -22.1220    -0.0380 C.3          1 04A701   0.0000
    17 CAQ         26.8080   -27.6150    -1.7300 C.3          1 04A701   0.0000
    18 CAR         14.3040   -28.1140     1.6740 C.3          1 04A701   0.0000
    19 NAS         24.7810   -24.3040     0.1240 N.2          1 04A701   0.0000
    20 NAT         17.1430   -23.6170    -0.7820 N.2          1 04A701   0.0000
    21 NAU         25.7860   -24.9540    -0.6190 N.2          1 04A701   0.0000
    22 NAV         16.3540   -24.7200    -0.3910 N.2          1 04A701   0.0000
    23 NAW         26.4310   -25.4040    -2.9710 N.am         1 04A701   0.0000
    24 NAX         16.0570   -26.3060     1.4880 N.am         1 04A701   0.0000
    25 SAY         20.4970   -23.9890    -1.1820 S.3          1 04A701   0.0000
    26 SAZ         24.1590   -23.9360    -2.3240 S.3          1 04A701   0.0000
    27 SBA         17.9810   -24.2830     1.5290 S.3          1 04A701   0.0000
    28 CBB         27.0300   -26.7080    -2.8910 C.2          1 04A701   0.0000
    29 CBC         14.8980   -26.9570     0.9510 C.2          1 04A701   0.0000
    30 CBD         27.7290   -28.7780    -1.8640 C.ar         1 04A701   0.0000
    31 CBE         14.3100   -29.2890     0.7600 C.ar         1 04A701   0.0000
    32 CBF         23.8260   -23.7000    -0.6410 C.2          1 04A701   0.0000
    33 CBG         18.0730   -23.2500     0.1460 C.2          1 04A701   0.0000
    34 CBH         25.5800   -24.8490    -1.9590 C.2          1 04A701   0.0000
    35 CBI         16.6860   -25.1930     0.8410 C.2          1 04A701   0.0000
    36 HAC         30.0974   -31.7922    -2.2144 H            1 04A701   0.0000
    37 HAD         14.3641   -32.3292    -1.6027 H            1 04A701   0.0000
    38 HAE         30.8324   -29.8389    -1.1075 H            1 04A701   0.0000
    39 HAF         27.8002   -31.9058    -3.1691 H            1 04A701   0.0000
    40 HAG         12.1923   -31.2937    -0.9625 H            1 04A701   0.0000
    41 HAH         16.3931   -31.4483    -0.7686 H            1 04A701   0.0000
    42 HAI         29.2961   -27.8888    -0.8728 H            1 04A701   0.0000
    43 HAJ         26.3456   -30.0536    -2.9472 H            1 04A701   0.0000
    44 HAK         12.1591   -29.4235     0.4876 H            1 04A701   0.0000
    45 HAL         16.3568   -29.4830     0.7642 H            1 04A701   0.0000
    46 HAM1        21.0857   -23.6681     1.0175 H            1 04A701   0.0000
    47 HAM2        21.9891   -24.8487     0.3417 H            1 04A701   0.0000
    48 HAN1        20.4862   -21.7009    -1.4225 H            1 04A701   0.0000
    49 HAN2        19.1428   -22.3588    -2.0774 H            1 04A701   0.0000
    50 HAO1        22.9302   -22.4852     0.7520 H            1 04A701   0.0000
    51 HAO2        22.3422   -22.2847    -0.7582 H            1 04A701   0.0000
    52 HAP1        18.5258   -21.2585    -0.1094 H            1 04A701   0.0000
    53 HAP2        19.6592   -22.0775     0.7339 H            1 04A701   0.0000
    54 HAQ1        25.8599   -27.9330    -1.7255 H            1 04A701   0.0000
    55 HAQ2        27.0002   -27.1276    -0.8782 H            1 04A701   0.0000
    56 HAR1        13.3650   -27.8991     1.9424 H            1 04A701   0.0000
    57 HAR2        14.8456   -28.3173     2.4897 H            1 04A701   0.0000
    58 HAW         26.6192   -24.8499    -3.7819 H            1 04A701   0.0000
    59 HAX         16.4415   -26.6419     2.3478 H            1 04A701   0.0000
@<TRIPOS>BOND
     1    1   28       2
     2    2   29       2
     3    3    5      ar
     4    3    6      ar
     5    4    7      ar
     6    4    8      ar
     7    5    9      ar
     8    6   10      ar
     9    7   11      ar
    10    8   12      ar
    11    9   30      ar
    12   10   30      ar
    13   11   31      ar
    14   12   31      ar
    15   13   15       1
    16   13   25       1
    17   14   16       1
    18   14   25       1
    19   15   32       1
    20   16   33       1
    21   17   28       1
    22   17   30       1
    23   18   29       1
    24   18   31       1
    25   19   21       1
    26   19   32       2
    27   20   22       1
    28   20   33       2
    29   21   34       2
    30   22   35       2
    31   23   28      am
    32   23   34       1
    33   24   29      am
    34   24   35       1
    35   26   32       1
    36   26   34       1
    37   27   33       1
    38   27   35       1
    39    3   36       1
    40    4   37       1
    41    5   38       1
    42    6   39       1
    43    7   40       1
    44    8   41       1
    45    9   42       1
    46   10   43       1
    47   11   44       1
    48   12   45       1
    49   13   46       1
    50   13   47       1
    51   14   48       1
    52   14   49       1
    53   15   50       1
    54   15   51       1
    55   16   52       1
    56   16   53       1
    57   17   54       1
    58   17   55       1
    59   18   56       1
    60   18   57       1
    61   23   58       1
    62   24   59       1
@<TRIPOS>SUBSTRUCTURE
     1 04A701      1 GROUP             4 B     04A     0 **** 04A B 701
