@<TRIPOS>MOLECULE
3mp3_HGG_1_ligand
   95    97     1     0     0
SMALL
NO_CHARGES


@<TRIPOS>ATOM
     1 N1          21.9330   -32.2800    -6.3900 N.ar         1 HGG399   0.0000
     2 C2          21.9660   -31.9270    -7.8090 C.ar         1 HGG399   0.0000
     3 N3          20.7330   -31.2220    -8.4280 N.ar         1 HGG399   0.0000
     4 C4          19.5550   -30.9360    -7.5140 C.ar         1 HGG399   0.0000
     5 C5          19.4150   -31.2670    -6.0470 C.ar         1 HGG399   0.0000
     6 C6          20.6640   -31.9550    -5.4840 C.ar         1 HGG399   0.0000
     7 N6          20.6970   -32.2910    -4.2290 N.pl3        1 HGG399   0.0000
     8 N7          18.2120   -30.8680    -5.5350 N.2          1 HGG399   1.0000
     9 C8          17.6090   -30.3280    -6.5670 C.2          1 HGG399   0.0000
    10 N9          18.3700   -30.3400    -7.7920 N.pl3        1 HGG399   0.0000
    11 C1'         27.1430   -21.5180     2.4090 C.2          1 HGG399   0.0000
    12 O1'         28.1580   -21.3950     1.6780 O.2          1 HGG399   0.0000
    13 C15         18.1000   -29.8390    -9.1700 C.3          1 HGG399   0.0000
    14 C16         16.7470   -30.2200    -9.8560 C.3          1 HGG399   0.0000
    15 C17         16.5420   -28.9560   -10.8330 C.3          1 HGG399   0.0000
    16 C18         17.1570   -27.7530   -10.0330 C.3          1 HGG399   0.0000
    17 C19         16.3410   -26.9990    -8.9850 C.3          1 HGG399   0.0000
    18 C2'         26.9800   -20.8390     3.6880 C.3          1 HGG399   0.0000
    19 O20         16.7330   -31.5690   -10.4690 O.3          1 HGG399   0.0000
    20 O21         17.3760   -29.0420   -12.0630 O.3          1 HGG399   0.0000
    21 O22         18.0230   -28.3800    -9.1200 O.3          1 HGG399   0.0000
    22 O23         14.9650   -27.3960    -8.7180 O.3          1 HGG399   0.0000
    23 C3'         27.5170   -21.5760     4.9000 C.3          1 HGG399   0.0000
    24 O3'         28.8680   -21.7950     4.7150 O.3          1 HGG399   0.0000
    25 P31         13.7470   -26.4720    -8.1950 P.3          1 HGG399   0.0000
    26 O32         14.1100   -25.0280    -8.9830 O.3          1 HGG399   0.0000
    27 O33         12.4660   -27.0970    -8.7090 O.co2        1 HGG399   0.0000
    28 O34         13.8340   -26.2460    -6.6800 O.co2        1 HGG399  -1.0000
    29 P35         15.0100   -23.7470    -8.3930 P.3          1 HGG399   0.0000
    30 O36         16.4320   -23.9190    -9.1260 O.co2        1 HGG399   0.0000
    31 O37         14.4970   -22.3550    -8.8330 O.co2        1 HGG399  -1.0000
    32 O38         15.1960   -23.6970    -6.7880 O.3          1 HGG399   0.0000
    33 P39         17.5380   -29.2730   -13.7150 P.3          1 HGG399   0.0000
    34 C4'         27.2640   -20.7340     6.1310 C.3          1 HGG399   0.0000
    35 O4'         27.0860   -18.3710     5.9930 O.co2        1 HGG399   0.0000
    36 O40         18.1430   -30.7110   -13.8760 O.co2        1 HGG399   0.0000
    37 O41         16.0730   -29.1280   -14.3240 O.co2        1 HGG399  -1.0000
    38 O42         18.5040   -28.1210   -14.1680 O.co2        1 HGG399  -1.0000
    39 C43         19.5720   -24.5920    -4.9660 C.2          1 HGG399   0.0000
    40 C44         18.2480   -24.6770    -4.1760 C.3          1 HGG399   0.0000
    41 C45         16.8080   -24.9150    -4.9880 C.3          1 HGG399   0.0000
    42 C46         16.4160   -23.7770    -5.9670 C.3          1 HGG399   0.0000
    43 C5'         27.8480   -19.4440     6.2750 C.2          1 HGG399   0.0000
    44 O5'         29.0600   -19.3190     6.6440 O.co2        1 HGG399  -1.0000
    45 O51         19.7380   -24.9440    -6.2070 O.2          1 HGG399   0.0000
    46 O52         18.5150   -25.7840    -3.2770 O.3          1 HGG399   0.0000
    47 C53         15.6430   -24.9530    -3.9820 C.3          1 HGG399   0.0000
    48 C57         16.8120   -26.2190    -5.6730 C.3          1 HGG399   0.0000
    49 C61         22.8510   -24.0730    -3.4210 C.3          1 HGG399   0.0000
    50 C62         21.9500   -23.8850    -4.6310 C.3          1 HGG399   0.0000
    51 N68         20.6260   -24.0800    -4.1960 N.am         1 HGG399   0.0000
    52 C69         23.7430   -22.9060    -2.8640 C.2          1 HGG399   0.0000
    53 N71         24.5350   -23.3210    -1.7000 N.am         1 HGG399   0.0000
    54 O72         23.7030   -21.7400    -3.4670 O.2          1 HGG399   0.0000
    55 C73         26.2290   -23.4370     0.1530 C.3          1 HGG399   0.0000
    56 C74         25.6610   -22.7620    -0.9510 C.3          1 HGG399   0.0000
    57 S81         25.9180   -22.6130     1.7590 S.3          1 HGG399   0.0000
    58 H1          22.7681   -32.1364    -8.3683 H            1 HGG399   0.0000
    59 H2          19.9130   -32.0980    -3.6389 H            1 HGG399   0.0000
    60 H3          21.5063   -32.7425    -3.8534 H            1 HGG399   0.0000
    61 H4          16.6904   -29.9372    -6.5088 H            1 HGG399   0.0000
    62 H5          18.8557   -30.1057    -9.7682 H            1 HGG399   0.0000
    63 H6          16.0297   -30.1906    -9.1598 H            1 HGG399   0.0000
    64 H7          15.5771   -28.8050   -11.0479 H            1 HGG399   0.0000
    65 H8          17.6504   -27.1255   -10.6353 H            1 HGG399   0.0000
    66 H9          16.3160   -26.0411    -9.2712 H            1 HGG399   0.0000
    67 H10         16.8378   -27.0758    -8.1205 H            1 HGG399   0.0000
    68 H2'1        26.0024   -20.6848     3.8310 H            1 HGG399   0.0000
    69 H2'2        27.4514   -19.9590     3.6304 H            1 HGG399   0.0000
    70 H13         17.4426   -31.6233   -11.1715 H            1 HGG399   0.0000
    71 H3'         27.0462   -22.4533     4.9930 H            1 HGG399   0.0000
    72 H15         29.2384   -22.2809     5.5066 H            1 HGG399   0.0000
    73 H4'1        27.5747   -21.2746     6.9128 H            1 HGG399   0.0000
    74 H4'2        26.2740   -20.6048     6.1874 H            1 HGG399   0.0000
    75 H18         18.1606   -23.8458    -3.6269 H            1 HGG399   0.0000
    76 H19         16.4054   -22.9480    -5.4078 H            1 HGG399   0.0000
    77 H20         17.1708   -23.7282    -6.6212 H            1 HGG399   0.0000
    78 H21         17.7154   -25.9435    -2.6980 H            1 HGG399   0.0000
    79 H22         14.7834   -25.0956    -4.4727 H            1 HGG399   0.0000
    80 H23         15.7857   -25.7019    -3.3349 H            1 HGG399   0.0000
    81 H24         15.6033   -24.0861    -3.4851 H            1 HGG399   0.0000
    82 H25         15.9442   -26.3458    -6.1535 H            1 HGG399   0.0000
    83 H26         17.5646   -26.2476    -6.3308 H            1 HGG399   0.0000
    84 H27         16.9299   -26.9489    -4.9997 H            1 HGG399   0.0000
    85 H28         23.4758   -24.8196    -3.6495 H            1 HGG399   0.0000
    86 H29         22.2556   -24.3550    -2.6687 H            1 HGG399   0.0000
    87 H30         22.1808   -24.5539    -5.3376 H            1 HGG399   0.0000
    88 H31         22.0577   -22.9612    -4.9985 H            1 HGG399   0.0000
    89 H32         20.4176   -23.8304    -3.2504 H            1 HGG399   0.0000
    90 H33         24.2315   -24.1986    -1.3288 H            1 HGG399   0.0000
    91 H34         27.2176   -23.4941     0.0136 H            1 HGG399   0.0000
    92 H35         25.8440   -24.3591     0.1915 H            1 HGG399   0.0000
    93 H36         25.3576   -21.8721    -0.6103 H            1 HGG399   0.0000
    94 H37         26.4006   -22.6317    -1.6113 H            1 HGG399   0.0000
    95 H38         17.8733   -30.9646    -4.5991 H            1 HGG399   0.0000
@<TRIPOS>BOND
     1    1    2      ar
     2    1    6      ar
     3    2    3      ar
     4    3    4      ar
     5    4    5      ar
     6    4   10       1
     7    5    6      ar
     8    5    8       1
     9    6    7       1
    10    8    9       2
    11    9   10       1
    12   10   13       1
    13   11   12       2
    14   11   18       1
    15   11   57       1
    16   13   14       1
    17   13   21       1
    18   14   15       1
    19   14   19       1
    20   15   16       1
    21   15   20       1
    22   16   17       1
    23   16   21       1
    24   17   22       1
    25   18   23       1
    26   20   33       1
    27   22   25       1
    28   23   24       1
    29   23   34       1
    30   25   26       1
    31   25   27      ar
    32   25   28      ar
    33   26   29       1
    34   29   30      ar
    35   29   31      ar
    36   29   32       1
    37   32   42       1
    38   33   36      ar
    39   33   37      ar
    40   33   38      ar
    41   34   43       1
    42   35   43      ar
    43   39   40       1
    44   39   45       2
    45   39   51      am
    46   40   41       1
    47   40   46       1
    48   41   42       1
    49   41   47       1
    50   41   48       1
    51   43   44      ar
    52   49   50       1
    53   49   52       1
    54   50   51       1
    55   52   53      am
    56   52   54       2
    57   53   56       1
    58   55   56       1
    59   55   57       1
    60    2   58       1
    61    7   59       1
    62    7   60       1
    63    9   61       1
    64   13   62       1
    65   14   63       1
    66   15   64       1
    67   16   65       1
    68   17   66       1
    69   17   67       1
    70   18   68       1
    71   18   69       1
    72   19   70       1
    73   23   71       1
    74   24   72       1
    75   56   94       1
    76   56   93       1
    77   34   73       1
    78   34   74       1
    79   55   92       1
    80   55   91       1
    81   53   90       1
    82   40   75       1
    83   42   76       1
    84   42   77       1
    85   46   78       1
    86   47   79       1
    87   47   80       1
    88   47   81       1
    89   48   82       1
    90   48   83       1
    91   48   84       1
    92   49   85       1
    93   49   86       1
    94   50   87       1
    95   50   88       1
    96   51   89       1
    97    8   95       1
@<TRIPOS>SUBSTRUCTURE
     1 HGG399      1 GROUP             4 B     HGG     0 **** HGG B 399
