@<TRIPOS>MOLECULE
3dm5_GDP_1_ligand
   40    42     1     0     0
SMALL
NO_CHARGES


@<TRIPOS>ATOM
     1 PB          23.5300   -42.9350    47.1360 P.3          1 GDP501   0.0000
     2 O1B         22.0710   -42.8540    46.8440 O.co2        1 GDP501   0.0000
     3 O2B         23.7360   -42.6800    48.6090 O.co2        1 GDP501  -1.0000
     4 O3B         24.2710   -41.9250    46.2950 O.co2        1 GDP501  -1.0000
     5 O3A         24.0970   -44.4340    46.9500 O.3          1 GDP501   0.0000
     6 PA          23.9750   -45.3800    45.6580 P.3          1 GDP501   0.0000
     7 O1A         24.8980   -46.5570    45.7690 O.co2        1 GDP501   0.0000
     8 O2A         24.2320   -44.6410    44.3760 O.co2        1 GDP501  -1.0000
     9 O5'         22.4660   -45.9190    45.7860 O.3          1 GDP501   0.0000
    10 C5'         22.1750   -46.7340    46.9150 C.3          1 GDP501   0.0000
    11 C4'         21.6300   -48.0980    46.4820 C.3          1 GDP501   0.0000
    12 O4'         20.5820   -48.0170    45.4880 O.3          1 GDP501   0.0000
    13 C3'         22.7290   -48.9670    45.8960 C.3          1 GDP501   0.0000
    14 O3'         22.5450   -50.2570    46.4870 O.3          1 GDP501   0.0000
    15 C2'         22.4390   -48.9780    44.4060 C.3          1 GDP501   0.0000
    16 O2'         22.7730   -50.2030    43.7950 O.3          1 GDP501   0.0000
    17 C1'         20.9360   -48.8530    44.3720 C.3          1 GDP501   0.0000
    18 N9          20.4060   -48.2710    43.1290 N.pl3        1 GDP501   0.0000
    19 C8          20.6610   -47.0720    42.5790 C.2          1 GDP501   0.0000
    20 N7          19.9260   -46.9010    41.4460 N.2          1 GDP501   0.0000
    21 C5          19.1750   -48.0070    41.2820 C.2          1 GDP501   0.0000
    22 C6          18.1720   -48.5190    40.3110 C.2          1 GDP501   0.0000
    23 O6          17.7980   -47.8480    39.3200 O.2          1 GDP501   0.0000
    24 N1          17.6660   -49.7390    40.5290 N.pl3        1 GDP501   0.0000
    25 C2          18.0160   -50.4950    41.5840 C.2          1 GDP501   0.0000
    26 N2          17.4510   -51.7120    41.7310 N.pl3        1 GDP501   0.0000
    27 N3          18.9100   -50.0970    42.5090 N.2          1 GDP501   0.0000
    28 C4          19.5040   -48.8960    42.4010 C.2          1 GDP501   0.0000
    29 H5'1        21.4921   -46.2743    47.4827 H            1 GDP501   0.0000
    30 H5'2        23.0122   -46.8697    47.4448 H            1 GDP501   0.0000
    31 H4'         21.2619   -48.5595    47.2892 H            1 GDP501   0.0000
    32 H3'         23.6369   -48.5968    46.0928 H            1 GDP501   0.0000
    33 H5          23.2425   -50.8846    46.1412 H            1 GDP501   0.0000
    34 H2'         22.8791   -48.2083    43.9435 H            1 GDP501   0.0000
    35 H7          22.5630   -50.1566    42.8184 H            1 GDP501   0.0000
    36 H1'         20.5323   -49.7583    44.5041 H            1 GDP501   0.0000
    37 H9          21.3012   -46.3993    42.9500 H            1 GDP501   0.0000
    38 H10         16.9991   -50.1036    39.8792 H            1 GDP501   0.0000
    39 H11         17.6996   -52.2879    42.5098 H            1 GDP501   0.0000
    40 H12         16.7839   -52.0377    41.0611 H            1 GDP501   0.0000
@<TRIPOS>BOND
     1    1    2      ar
     2    1    3      ar
     3    1    4      ar
     4    1    5       1
     5    5    6       1
     6    6    7      ar
     7    6    8      ar
     8    6    9       1
     9    9   10       1
    10   10   11       1
    11   11   12       1
    12   11   13       1
    13   12   17       1
    14   13   14       1
    15   13   15       1
    16   15   16       1
    17   15   17       1
    18   17   18       1
    19   18   19       1
    20   18   28       1
    21   19   20       2
    22   20   21       1
    23   21   22       1
    24   21   28       2
    25   22   23       2
    26   22   24       1
    27   24   25       1
    28   25   26       1
    29   25   27       2
    30   27   28       1
    31   26   40       1
    32   26   39       1
    33   24   38       1
    34   10   29       1
    35   10   30       1
    36   11   31       1
    37   13   32       1
    38   14   33       1
    39   15   34       1
    40   16   35       1
    41   17   36       1
    42   19   37       1
@<TRIPOS>SUBSTRUCTURE
     1 GDP501      1 GROUP             4 A     GDP     0 **** GDP A 501
