@<TRIPOS>MOLECULE
1rvv_INI_25_ligand
   34    34     1     0     0
SMALL
NO_CHARGES


@<TRIPOS>ATOM
     1 N1          -3.2920    -6.8060    54.2180 N.pl3        1 INI200  -1.0000
     2 C2          -2.6250    -5.6130    53.9930 C.2          1 INI200   0.0000
     3 O2          -2.4170    -4.8850    54.9880 O.2          1 INI200   0.0000
     4 N3          -2.2590    -5.3600    52.7180 N.pl3        1 INI200   0.0000
     5 C4          -2.4840    -6.2030    51.6510 C.2          1 INI200   0.0000
     6 O4          -2.0930    -5.7690    50.5560 O.2          1 INI200   0.0000
     7 C5          -3.1640    -7.5260    51.9430 C.2          1 INI200   0.0000
     8 N5          -3.2500    -8.4640    50.8610 N.2          1 INI200   1.0000
     9 O51         -2.7110    -8.2370    49.8210 O.co2        1 INI200   0.0000
    10 O52         -3.9010    -9.4790    51.0270 O.co2        1 INI200  -1.0000
    11 C6          -3.4270    -7.8390    53.3040 C.2          1 INI200   0.0000
    12 N7          -3.6840    -9.0950    53.8130 N.pl3        1 INI200   0.0000
    13 C8          -5.1710    -9.4080    53.7850 C.3          1 INI200   0.0000
    14 C9          -5.8960    -9.1780    55.1880 C.3          1 INI200   0.0000
    15 O9          -5.6200    -7.8440    55.5760 O.3          1 INI200   0.0000
    16 C10         -5.7680   -10.0870    56.4990 C.3          1 INI200   0.0000
    17 O10         -4.4800    -9.9520    57.0640 O.3          1 INI200   0.0000
    18 C11         -6.3260   -11.6460    56.6060 C.3          1 INI200   0.0000
    19 O11         -6.8180   -11.6880    55.2500 O.3          1 INI200   0.0000
    20 C12         -7.5840   -12.2350    57.4230 C.3          1 INI200   0.0000
    21 O12         -7.9230   -11.2120    58.3540 O.3          1 INI200   0.0000
    22 H1          -1.7896    -4.4964    52.5342 H            1 INI200   0.0000
    23 H2          -2.9822    -9.7193    54.1563 H            1 INI200   0.0000
    24 H3          -5.2881   -10.3655    53.5213 H            1 INI200   0.0000
    25 H4          -5.6057    -8.8191    53.1037 H            1 INI200   0.0000
    26 H5          -6.8724    -9.1818    54.9719 H            1 INI200   0.0000
    27 H6          -5.0525    -7.4049    54.8795 H            1 INI200   0.0000
    28 H7          -6.3458    -9.6034    57.1564 H            1 INI200   0.0000
    29 H8          -4.5603    -9.6001    57.9966 H            1 INI200   0.0000
    30 H9          -5.5501   -12.2703    56.6966 H            1 INI200   0.0000
    31 H10         -7.6028   -12.3056    55.1991 H            1 INI200   0.0000
    32 H11         -7.3314   -13.0765    57.9005 H            1 INI200   0.0000
    33 H12         -8.3498   -12.4185    56.8067 H            1 INI200   0.0000
    34 H13         -7.4143   -11.3524    59.2034 H            1 INI200   0.0000
@<TRIPOS>BOND
     1    1    2       1
     2    1   11       1
     3    2    3       2
     4    2    4       1
     5    4    5       1
     6    5    6       2
     7    5    7       1
     8    7    8       1
     9    7   11       2
    10    8    9      ar
    11    8   10      ar
    12   11   12       1
    13   12   13       1
    14   13   14       1
    15   14   15       1
    16   14   16       1
    17   16   17       1
    18   16   18       1
    19   18   19       1
    20   18   20       1
    21   20   21       1
    22   21   34       1
    23    4   22       1
    24   12   23       1
    25   13   24       1
    26   13   25       1
    27   14   26       1
    28   15   27       1
    29   16   28       1
    30   17   29       1
    31   18   30       1
    32   19   31       1
    33   20   32       1
    34   20   33       1
@<TRIPOS>SUBSTRUCTURE
     1 INI200      1 GROUP             4 U     INI     0 **** INI U 200
