@<TRIPOS>MOLECULE
2yvl_SAM_4_ligand
   50    52     1     0     0
SMALL
NO_CHARGES


@<TRIPOS>ATOM
     1 N           25.3560    10.2610    19.4660 N.4          1 SAM603   1.0000
     2 CA          24.5890     8.9960    19.3130 C.3          1 SAM603   0.0000
     3 C           23.0890     9.2480    19.2300 C.2          1 SAM603   0.0000
     4 O           22.6450    10.3900    19.3080 O.co2        1 SAM603   0.0000
     5 OXT         22.2890     8.3200    19.0850 O.co2        1 SAM603  -1.0000
     6 CB          24.8860     8.0690    20.4780 C.3          1 SAM603   0.0000
     7 CG          26.3030     7.5090    20.4860 C.3          1 SAM603   0.0000
     8 SD          26.4480     6.1300    21.6440 S.3          1 SAM603   1.0000
     9 CE          26.3550     6.9300    23.2690 C.3          1 SAM603   0.0000
    10 C5'         28.2210     5.7700    21.5310 C.3          1 SAM603   0.0000
    11 C4'         28.5250     4.9060    20.3120 C.3          1 SAM603   0.0000
    12 O4'         29.8430     5.1260    19.8600 O.3          1 SAM603   0.0000
    13 C3'         28.3920     3.4240    20.6140 C.3          1 SAM603   0.0000
    14 O3'         27.3850     2.9010    19.7790 O.3          1 SAM603   0.0000
    15 C2'         29.7600     2.8300    20.2990 C.3          1 SAM603   0.0000
    16 O2'         29.6770     1.5980    19.6150 O.3          1 SAM603   0.0000
    17 C1'         30.3950     3.9000    19.4240 C.3          1 SAM603   0.0000
    18 N9          31.8670     3.9410    19.5030 N.pl3        1 SAM603   0.0000
    19 C8          32.6420     3.9670    20.6350 C.2          1 SAM603   0.0000
    20 N7          33.9420     4.0100    20.2640 N.2          1 SAM603   0.0000
    21 C5          34.0070     4.0220    18.9140 C.ar         1 SAM603   0.0000
    22 C6          35.0750     4.0610    18.0210 C.ar         1 SAM603   0.0000
    23 N6          36.3220     4.0980    18.4730 N.pl3        1 SAM603   0.0000
    24 N1          34.8280     4.0610    16.6610 N.ar         1 SAM603   0.0000
    25 C2          33.5300     4.0210    16.1800 C.ar         1 SAM603   0.0000
    26 N3          32.4770     3.9750    17.0760 N.ar         1 SAM603   0.0000
    27 C4          32.7080     3.9800    18.4190 C.ar         1 SAM603   0.0000
    28 H1          25.8747    10.2350    20.3205 H            1 SAM603   0.0000
    29 H2          25.9863    10.3638    18.6965 H            1 SAM603   0.0000
    30 HA          24.8823     8.5477    18.4686 H            1 SAM603   0.0000
    31 HB1         24.2459     7.3017    20.4391 H            1 SAM603   0.0000
    32 HB2         24.7452     8.5778    21.3273 H            1 SAM603   0.0000
    33 HG1         26.9387     8.2318    20.7570 H            1 SAM603   0.0000
    34 HG2         26.5336     7.1897    19.5668 H            1 SAM603   0.0000
    35 HE1         26.4273     6.2370    23.9863 H            1 SAM603   0.0000
    36 HE2         27.1049     7.5850    23.3615 H            1 SAM603   0.0000
    37 HE3         25.4815     7.4090    23.3552 H            1 SAM603   0.0000
    38 H5'1        28.5097     5.2847    22.3563 H            1 SAM603   0.0000
    39 H5'2        28.7255     6.6302    21.4565 H            1 SAM603   0.0000
    40 H4'         27.8878     5.1451    19.5793 H            1 SAM603   0.0000
    41 H3'         28.1600     3.2810    21.5761 H            1 SAM603   0.0000
    42 H15         27.6411     3.0378    18.8221 H            1 SAM603   0.0000
    43 H2'         30.2874     2.7191    21.1414 H            1 SAM603   0.0000
    44 H17         29.1943     1.7293    18.7491 H            1 SAM603   0.0000
    45 H1'         30.1258     3.7432    18.4738 H            1 SAM603   0.0000
    46 H19         32.3029     3.9560    21.5757 H            1 SAM603   0.0000
    47 H20         37.0866     4.1259    17.8291 H            1 SAM603   0.0000
    48 H21         36.4972     4.0979    19.4575 H            1 SAM603   0.0000
    49 H22         33.3557     4.0253    15.1953 H            1 SAM603   0.0000
    50 H23         24.7227    11.0347    19.4839 H            1 SAM603   0.0000
@<TRIPOS>BOND
     1    1    2       1
     2    2    3       1
     3    2    6       1
     4    3    4      ar
     5    3    5      ar
     6    6    7       1
     7    7    8       1
     8    8    9       1
     9    8   10       1
    10   10   11       1
    11   11   12       1
    12   11   13       1
    13   12   17       1
    14   13   14       1
    15   13   15       1
    16   15   16       1
    17   15   17       1
    18   17   18       1
    19   18   19       1
    20   18   27       1
    21   19   20       2
    22   20   21       1
    23   21   22      ar
    24   21   27      ar
    25   22   23       1
    26   22   24      ar
    27   24   25      ar
    28   25   26      ar
    29   26   27      ar
    30    1   28       1
    31    1   29       1
    32    2   30       1
    33    1   50       1
    34    6   31       1
    35    6   32       1
    36    7   33       1
    37    7   34       1
    38    9   35       1
    39    9   36       1
    40    9   37       1
    41   10   38       1
    42   10   39       1
    43   11   40       1
    44   13   41       1
    45   14   42       1
    46   15   43       1
    47   16   44       1
    48   17   45       1
    49   19   46       1
    50   23   47       1
    51   23   48       1
    52   25   49       1
@<TRIPOS>SUBSTRUCTURE
     1 SAM603      1 GROUP             4 D     SAM     0 **** SAM D 603
