@<TRIPOS>MOLECULE
1mq0_BRD_2_ligand
   33    34     1     0     0
SMALL
NO_CHARGES


@<TRIPOS>ATOM
     1 C4          37.2730    81.9850   122.5480 C.3          1 BRD149   0.0000
     2 N3          37.0070    81.3310   121.2740 N.am         1 BRD149   0.0000
     3 C2          37.1350    81.8300   120.0110 C.2          1 BRD149   0.0000
     4 N1          37.0490    83.1370   119.6110 N.am         1 BRD149   0.0000
     5 C7          36.1560    84.0520   120.3390 C.3          1 BRD149   0.0000
     6 C6          36.6420    84.3760   121.7300 C.2          1 BRD149   0.0000
     7 O2          37.3480    80.8630   119.0700 O.2          1 BRD149   0.0000
     8 C1'         37.7750    83.5510   118.3990 C.3          1 BRD149   0.0000
     9 O4'         38.7040    84.5890   118.6460 O.3          1 BRD149   0.0000
    10 C4'         38.8070    85.4140   117.4940 C.3          1 BRD149   0.0000
    11 C3'         37.8320    84.8710   116.4270 C.3          1 BRD149   0.0000
    12 C2'         36.8560    84.0630   117.2850 C.3          1 BRD149   0.0000
    13 O2'         36.3080    82.9900   116.5700 O.3          1 BRD149   0.0000
    14 O3'         38.5300    84.0160   115.5450 O.3          1 BRD149   0.0000
    15 C5'         38.5210    86.8690   117.9100 C.3          1 BRD149   0.0000
    16 O5'         37.1330    87.0960   117.9740 O.3          1 BRD149   0.0000
    17 C5          37.0830    83.4900   122.6730 C.2          1 BRD149   0.0000
    18 H1          38.2263    81.7921   122.7803 H            1 BRD149   0.0000
    19 H2          36.6722    81.5590   123.2245 H            1 BRD149   0.0000
    20 H3          36.6863    80.3857   121.3335 H            1 BRD149   0.0000
    21 H4          35.2536    83.6267   120.4087 H            1 BRD149   0.0000
    22 H5          36.0837    84.9044   119.8211 H            1 BRD149   0.0000
    23 H6          36.6415    85.3417   121.9898 H            1 BRD149   0.0000
    24 H1'         38.2769    82.7595   118.0503 H            1 BRD149   0.0000
    25 H4'         39.7398    85.3571   117.1382 H            1 BRD149   0.0000
    26 H3'         37.3698    85.6104   115.9374 H            1 BRD149   0.0000
    27 H2'         36.1364    84.6497   117.6565 H            1 BRD149   0.0000
    28 H11         35.4456    82.7129   116.9937 H            1 BRD149   0.0000
    29 H12         38.8933    84.5496   114.7812 H            1 BRD149   0.0000
    30 H5'1        38.9260    87.4896   117.2385 H            1 BRD149   0.0000
    31 H5'2        38.9249    87.0405   118.8086 H            1 BRD149   0.0000
    32 H5'         36.9409    87.7940   118.6638 H            1 BRD149   0.0000
    33 H16         37.3112    83.8831   123.5637 H            1 BRD149   0.0000
@<TRIPOS>BOND
     1    1    2       1
     2    1   17       1
     3    2    3      am
     4    3    4      am
     5    3    7       2
     6    4    5       1
     7    4    8       1
     8    5    6       1
     9    6   17       2
    10    8    9       1
    11    8   12       1
    12    9   10       1
    13   10   11       1
    14   10   15       1
    15   11   12       1
    16   11   14       1
    17   12   13       1
    18   15   16       1
    19    1   18       1
    20    1   19       1
    21    2   20       1
    22    5   21       1
    23    5   22       1
    24    6   23       1
    25    8   24       1
    26   10   25       1
    27   11   26       1
    28   12   27       1
    29   13   28       1
    30   14   29       1
    31   15   30       1
    32   15   31       1
    33   16   32       1
    34   17   33       1
@<TRIPOS>SUBSTRUCTURE
     1 BRD149      1 GROUP             4 B     BRD     0 **** BRD B 149
