@<TRIPOS>MOLECULE
5i2h_AGI_2_ligand
   29    31     1     0     0
SMALL
NO_CHARGES


@<TRIPOS>ATOM
     1 CAG         40.6860    44.8480    41.9750 C.ar         1 AGI501   0.0000
     2 CAE         40.0620    46.0200    41.5670 C.ar         1 AGI501   0.0000
     3 CAM         40.7760    47.2130    41.6070 C.ar         1 AGI501   0.0000
     4 OAB         40.1350    48.3530    41.1940 O.3          1 AGI501   0.0000
     5 CAF         42.1130    47.2230    42.0570 C.ar         1 AGI501   0.0000
     6 CAH         42.7450    46.0440    42.4670 C.ar         1 AGI501   0.0000
     7 CAP         42.0080    44.8580    42.4260 C.ar         1 AGI501   0.0000
     8 CAQ         42.5400    43.5250    42.8060 C.2          1 AGI501   0.0000
     9 OAL         41.7570    42.4870    42.3660 O.2          1 AGI501   0.0000
    10 CAJ         43.7230    43.3170    43.5260 C.2          1 AGI501   0.0000
    11 CAR         44.1340    42.0090    43.8130 C.2          1 AGI501   0.0000
    12 OAA         45.1780    41.8080    44.4770 O.2          1 AGI501   0.0000
    13 CAT         43.2920    40.8590    43.3450 C.ar         1 AGI501   0.0000
    14 CAS         42.0600    41.1750    42.5930 C.ar         1 AGI501   0.0000
    15 CAK         41.2330    40.1650    42.1240 C.ar         1 AGI501   0.0000
    16 CAN         41.5560    38.8410    42.3670 C.ar         1 AGI501   0.0000
    17 OAC         40.7060    37.9030    41.8880 O.3          1 AGI501  -1.0000
    18 CAI         42.7120    38.4620    43.0910 C.ar         1 AGI501   0.0000
    19 CAO         43.5990    39.4110    43.5920 C.ar         1 AGI501   0.0000
    20 OAD         44.7010    39.0410    44.2770 O.3          1 AGI501   0.0000
    21 HAG         40.1817    43.9850    41.9454 H            1 AGI501   0.0000
    22 HAE         39.1139    46.0063    41.2494 H            1 AGI501   0.0000
    23 HAB         40.6155    49.2299    41.2083 H            1 AGI501   0.0000
    24 HAF         42.6169    48.0863    42.0834 H            1 AGI501   0.0000
    25 HAH         43.6948    46.0501    42.7797 H            1 AGI501   0.0000
    26 HAJ         44.2699    44.0960    43.8328 H            1 AGI501   0.0000
    27 HAK         40.4052    40.3928    41.6114 H            1 AGI501   0.0000
    28 HAI         42.8955    37.4913    43.2460 H            1 AGI501   0.0000
    29 HAD         45.3279    39.7361    44.6288 H            1 AGI501   0.0000
@<TRIPOS>BOND
     1    1    2      ar
     2    1    7      ar
     3    2    3      ar
     4    3    4       1
     5    3    5      ar
     6    5    6      ar
     7    6    7      ar
     8    7    8       1
     9    8    9       1
    10    8   10       2
    11    9   14       1
    12   10   11       1
    13   11   12       2
    14   11   13       1
    15   13   14      ar
    16   13   19      ar
    17   14   15      ar
    18   15   16      ar
    19   16   17       1
    20   16   18      ar
    21   18   19      ar
    22   19   20       1
    23    1   21       1
    24    2   22       1
    25    4   23       1
    26    5   24       1
    27    6   25       1
    28   10   26       1
    29   15   27       1
    30   20   29       1
    31   18   28       1
@<TRIPOS>SUBSTRUCTURE
     1 AGI501      1 GROUP             4 B     AGI     0 **** AGI B 501
