@<TRIPOS>MOLECULE
3vph_OXM_2_ligand
    8     7     1     0     0
SMALL
NO_CHARGES


@<TRIPOS>ATOM
     1 C1         -50.6040     4.4890    87.1660 C.2          1 OXM401   0.0000
     2 N1         -50.4650     4.5450    85.8240 N.am         1 OXM401   0.0000
     3 O1         -50.6210     3.3620    87.7570 O.2          1 OXM401   0.0000
     4 C2         -50.7530     5.7150    87.9280 C.2          1 OXM401   0.0000
     5 O2         -51.8680     5.9740    88.4400 O.co2        1 OXM401   0.0000
     6 O3         -49.7920     6.5360    88.0710 O.co2        1 OXM401  -1.0000
     7 H1         -50.4516     5.4303    85.3592 H            1 OXM401   0.0000
     8 H2         -50.3755     3.7011    85.2950 H            1 OXM401   0.0000
@<TRIPOS>BOND
     1    1    2      am
     2    1    3       2
     3    1    4       1
     4    4    5      ar
     5    4    6      ar
     6    2    7       1
     7    2    8       1
@<TRIPOS>SUBSTRUCTURE
     1 OXM401      1 GROUP             4 B     OXM     0 **** OXM B 401
