@<TRIPOS>MOLECULE
1gsu_GTX_1_ligand
   54    53     1     0     0
SMALL
NO_CHARGES


@<TRIPOS>ATOM
     1 N1          26.4940    -0.2570    47.4130 N.4          1 GTX220   1.0000
     2 CA1         26.8330    -0.4250    48.8440 C.3          1 GTX220   0.0000
     3 C1          27.4440     0.8930    49.3020 C.2          1 GTX220   0.0000
     4 O11         27.8310     1.7110    48.4660 O.co2        1 GTX220   0.0000
     5 O12         27.5240     1.1510    50.5000 O.co2        1 GTX220  -1.0000
     6 CB1         27.8170    -1.5990    49.0200 C.3          1 GTX220   0.0000
     7 CG1         28.0260    -2.0470    50.4710 C.3          1 GTX220   0.0000
     8 CD1         28.7670    -3.3670    50.5970 C.2          1 GTX220   0.0000
     9 OE1         28.6270    -4.2480    49.7530 O.2          1 GTX220   0.0000
    10 N2          29.5490    -3.5210    51.6660 N.am         1 GTX220   0.0000
    11 CA2         30.2780    -4.7650    51.9530 C.3          1 GTX220   0.0000
    12 C2          30.0640    -5.2120    53.4070 C.2          1 GTX220   0.0000
    13 O2          30.9820    -5.7360    54.0420 O.2          1 GTX220   0.0000
    14 CB2         31.7900    -4.5670    51.7330 C.3          1 GTX220   0.0000
    15 SG2         32.3800    -3.6700    50.2940 S.3          1 GTX220   0.0000
    16 C1S         32.9940    -4.9950    49.2510 C.3          1 GTX220   0.0000
    17 C2S         33.9180    -4.4790    48.1310 C.3          1 GTX220   0.0000
    18 C3S         35.1600    -3.6980    48.6420 C.3          1 GTX220   0.0000
    19 C4S         36.0880    -4.5410    49.5230 C.3          1 GTX220   0.0000
    20 C5S         36.2710    -3.8830    50.8700 C.3          1 GTX220   0.0000
    21 C6S         36.9680    -4.7340    51.8910 C.3          1 GTX220   0.0000
    22 N3          28.8620    -5.0110    53.9470 N.am         1 GTX220   0.0000
    23 CA3         28.4630    -5.4510    55.2880 C.3          1 GTX220   0.0000
    24 C3          27.1790    -6.2800    55.3060 C.2          1 GTX220   0.0000
    25 O31         26.7910    -6.7830    56.3530 O.co2        1 GTX220   0.0000
    26 O32         26.5380    -6.4460    54.2740 O.co2        1 GTX220  -1.0000
    27 H1          27.2739    -0.5328    46.8511 H            1 GTX220   0.0000
    28 H2          25.7034    -0.8267    47.1886 H            1 GTX220   0.0000
    29 HA1         25.9995    -0.6063    49.3659 H            1 GTX220   0.0000
    30 HB11        28.7031    -1.3211    48.6490 H            1 GTX220   0.0000
    31 HB12        27.4678    -2.3788    48.5004 H            1 GTX220   0.0000
    32 HG11        27.1300    -2.1444    50.9043 H            1 GTX220   0.0000
    33 HG12        28.5518    -1.3422    50.9472 H            1 GTX220   0.0000
    34 H8          29.6440    -2.7550    52.3018 H            1 GTX220   0.0000
    35 HA2         29.9507    -5.4836    51.3395 H            1 GTX220   0.0000
    36 HB21        32.1972    -5.4794    51.6910 H            1 GTX220   0.0000
    37 HB22        32.1374    -4.0836    52.5365 H            1 GTX220   0.0000
    38 H1S1        32.2148    -5.4635    48.8345 H            1 GTX220   0.0000
    39 H1S2        33.5061    -5.6397    49.8186 H            1 GTX220   0.0000
    40 H2S1        33.3865    -3.8718    47.5403 H            1 GTX220   0.0000
    41 H2S2        34.2373    -5.2644    47.6007 H            1 GTX220   0.0000
    42 H3S1        34.8438    -2.9130    49.1747 H            1 GTX220   0.0000
    43 H3S2        35.6799    -3.3763    47.8507 H            1 GTX220   0.0000
    44 H4S1        36.9778    -4.6293    49.0752 H            1 GTX220   0.0000
    45 H4S2        35.6875    -5.4484    49.6506 H            1 GTX220   0.0000
    46 H5S1        35.3674    -3.6452    51.2264 H            1 GTX220   0.0000
    47 H5S2        36.8078    -3.0494    50.7397 H            1 GTX220   0.0000
    48 H6S1        37.0481    -4.2268    52.7491 H            1 GTX220   0.0000
    49 H6S2        36.4399    -5.5690    52.0455 H            1 GTX220   0.0000
    50 H6S3        37.8803    -4.9732    51.5588 H            1 GTX220   0.0000
    51 H25         28.1826    -4.5246    53.3976 H            1 GTX220   0.0000
    52 HA31        28.3238    -4.6410    55.8576 H            1 GTX220   0.0000
    53 HA32        29.2019    -6.0051    55.6713 H            1 GTX220   0.0000
    54 H28         26.2757     0.7020    47.2325 H            1 GTX220   0.0000
@<TRIPOS>BOND
     1    1    2       1
     2    2    3       1
     3    2    6       1
     4    3    4      ar
     5    3    5      ar
     6    6    7       1
     7    7    8       1
     8    8    9       2
     9    8   10      am
    10   10   11       1
    11   11   12       1
    12   11   14       1
    13   12   13       2
    14   12   22      am
    15   14   15       1
    16   15   16       1
    17   16   17       1
    18   17   18       1
    19   18   19       1
    20   19   20       1
    21   20   21       1
    22   22   23       1
    23   23   24       1
    24   24   25      ar
    25   24   26      ar
    26    1   27       1
    27    1   28       1
    28    2   29       1
    29    1   54       1
    30    6   30       1
    31    6   31       1
    32    7   32       1
    33    7   33       1
    34   10   34       1
    35   11   35       1
    36   14   36       1
    37   14   37       1
    38   16   38       1
    39   16   39       1
    40   17   40       1
    41   17   41       1
    42   18   42       1
    43   18   43       1
    44   19   44       1
    45   19   45       1
    46   20   46       1
    47   20   47       1
    48   21   48       1
    49   21   49       1
    50   21   50       1
    51   22   51       1
    52   23   52       1
    53   23   53       1
@<TRIPOS>SUBSTRUCTURE
     1 GTX220      1 GROUP             4 A     GTX     0 **** GTX A 220
