@<TRIPOS>MOLECULE
4dcm_SAM_1_ligand
   50    52     1     0     0
SMALL
NO_CHARGES


@<TRIPOS>ATOM
     1 N           43.4610    -5.3960    45.9200 N.4          1 SAM401   1.0000
     2 CA          43.0830    -6.4420    46.8680 C.3          1 SAM401   0.0000
     3 C           42.9830    -7.7920    46.1690 C.2          1 SAM401   0.0000
     4 O           42.8260    -8.8280    46.8180 O.co2        1 SAM401   0.0000
     5 OXT         43.0670    -7.8720    44.9400 O.co2        1 SAM401  -1.0000
     6 CB          41.7740    -6.1160    47.5790 C.3          1 SAM401   0.0000
     7 CG          40.5380    -5.9690    46.6930 C.3          1 SAM401   0.0000
     8 SD          39.0060    -5.7540    47.6570 S.3          1 SAM401   1.0000
     9 CE          37.8660    -6.8390    46.7610 C.3          1 SAM401   0.0000
    10 C5'         38.3570    -4.1470    47.1120 C.3          1 SAM401   0.0000
    11 C4'         38.9650    -2.9600    47.8540 C.3          1 SAM401   0.0000
    12 O4'         38.4810    -1.7330    47.3400 O.3          1 SAM401   0.0000
    13 C3'         38.6480    -2.9610    49.3410 C.3          1 SAM401   0.0000
    14 O3'         39.8860    -2.9790    50.0190 O.3          1 SAM401   0.0000
    15 C2'         37.9250    -1.6470    49.5880 C.3          1 SAM401   0.0000
    16 O2'         38.2880    -1.0340    50.8080 O.3          1 SAM401   0.0000
    17 C1'         38.3600    -0.8080    48.3980 C.3          1 SAM401   0.0000
    18 N9          37.3780     0.2030    48.0060 N.pl3        1 SAM401   0.0000
    19 C8          36.0120     0.0870    48.0530 C.2          1 SAM401   0.0000
    20 N7          35.4810     1.2410    47.5820 N.2          1 SAM401   0.0000
    21 C5          36.4850     2.0840    47.2420 C.ar         1 SAM401   0.0000
    22 C6          36.4940     3.3770    46.7210 C.ar         1 SAM401   0.0000
    23 N6          35.3530     4.0170    46.4630 N.pl3        1 SAM401   0.0000
    24 N1          37.7020     3.9950    46.4700 N.ar         1 SAM401   0.0000
    25 C2          38.8850     3.3360    46.7360 C.ar         1 SAM401   0.0000
    26 N3          38.8680     2.0510    47.2550 N.ar         1 SAM401   0.0000
    27 C4          37.6870     1.4380    47.5050 C.ar         1 SAM401   0.0000
    28 H1          43.0695    -4.5236    46.2126 H            1 SAM401   0.0000
    29 H2          44.4576    -5.3199    45.8874 H            1 SAM401   0.0000
    30 HA          43.8022    -6.5056    47.5599 H            1 SAM401   0.0000
    31 HB1         41.9008    -5.2540    48.0697 H            1 SAM401   0.0000
    32 HB2         41.5930    -6.8492    48.2345 H            1 SAM401   0.0000
    33 HG1         40.4489    -6.7899    46.1289 H            1 SAM401   0.0000
    34 HG2         40.6599    -5.1708    46.1031 H            1 SAM401   0.0000
    35 HE1         36.9671    -6.8119    47.1982 H            1 SAM401   0.0000
    36 HE2         37.7855    -6.5286    45.8138 H            1 SAM401   0.0000
    37 HE3         38.2160    -7.7756    46.7762 H            1 SAM401   0.0000
    38 H5'1        37.3679    -4.1390    47.2591 H            1 SAM401   0.0000
    39 H5'2        38.5497    -4.0425    46.1363 H            1 SAM401   0.0000
    40 H4'         39.9580    -2.9855    47.7387 H            1 SAM401   0.0000
    41 H3'         38.0804    -3.7445    49.5940 H            1 SAM401   0.0000
    42 H15         40.4151    -2.1683    49.7684 H            1 SAM401   0.0000
    43 H2'         36.9359    -1.7915    49.5600 H            1 SAM401   0.0000
    44 H17         39.0668    -0.4254    50.6565 H            1 SAM401   0.0000
    45 H1'         39.2435    -0.3777    48.5833 H            1 SAM401   0.0000
    46 H19         35.4993    -0.7080    48.3773 H            1 SAM401   0.0000
    47 H20         35.3733     4.9443    46.0893 H            1 SAM401   0.0000
    48 H21         34.4770     3.5696    46.6432 H            1 SAM401   0.0000
    49 H22         39.7583     3.7876    46.5535 H            1 SAM401   0.0000
    50 H23         43.1146    -5.6287    45.0112 H            1 SAM401   0.0000
@<TRIPOS>BOND
     1    1    2       1
     2    2    3       1
     3    2    6       1
     4    3    4      ar
     5    3    5      ar
     6    6    7       1
     7    7    8       1
     8    8    9       1
     9    8   10       1
    10   10   11       1
    11   11   12       1
    12   11   13       1
    13   12   17       1
    14   13   14       1
    15   13   15       1
    16   15   16       1
    17   15   17       1
    18   17   18       1
    19   18   19       1
    20   18   27       1
    21   19   20       2
    22   20   21       1
    23   21   22      ar
    24   21   27      ar
    25   22   23       1
    26   22   24      ar
    27   24   25      ar
    28   25   26      ar
    29   26   27      ar
    30    1   28       1
    31    1   29       1
    32    2   30       1
    33    1   50       1
    34    6   31       1
    35    6   32       1
    36    7   33       1
    37    7   34       1
    38    9   35       1
    39    9   36       1
    40    9   37       1
    41   10   38       1
    42   10   39       1
    43   11   40       1
    44   13   41       1
    45   14   42       1
    46   15   43       1
    47   16   44       1
    48   17   45       1
    49   19   46       1
    50   23   47       1
    51   23   48       1
    52   25   49       1
@<TRIPOS>SUBSTRUCTURE
     1 SAM401      1 GROUP             4 A     SAM     0 **** SAM A 401
