@<TRIPOS>MOLECULE
3okf_NAD_2_ligand
   70    74     1     0     0
SMALL
NO_CHARGES


@<TRIPOS>ATOM
     1 PA         -63.5430   -27.8880   -13.0830 P.3          1 NAD367   0.0000
     2 O1A        -62.2050   -27.6430   -12.4300 O.co2        1 NAD367   0.0000
     3 O2A        -64.1410   -26.9150   -14.0780 O.co2        1 NAD367  -1.0000
     4 O5B        -64.6720   -28.1080   -11.9370 O.3          1 NAD367   0.0000
     5 C5B        -66.0500   -28.3030   -12.3140 C.3          1 NAD367   0.0000
     6 C4B        -67.0020   -27.2260   -11.7710 C.3          1 NAD367   0.0000
     7 O4B        -67.3400   -27.4870   -10.4080 O.3          1 NAD367   0.0000
     8 C3B        -66.4560   -25.8170   -11.7450 C.3          1 NAD367   0.0000
     9 O3B        -67.4990   -24.9300   -12.1110 O.3          1 NAD367   0.0000
    10 C2B        -66.1330   -25.4720   -10.3150 C.3          1 NAD367   0.0000
    11 O2B        -66.4580   -24.1080   -10.0420 O.3          1 NAD367   0.0000
    12 C1B        -67.0740   -26.3580    -9.5530 C.3          1 NAD367   0.0000
    13 N9A        -66.5860   -26.9710    -8.3120 N.pl3        1 NAD367   0.0000
    14 C8A        -65.3840   -27.4890    -8.0360 C.2          1 NAD367   0.0000
    15 N7A        -65.4110   -28.0300    -6.7890 N.2          1 NAD367   0.0000
    16 C5A        -66.6600   -27.8590    -6.3250 C.ar         1 NAD367   0.0000
    17 C6A        -67.2930   -28.2220    -5.1600 C.ar         1 NAD367   0.0000
    18 N6A        -66.6020   -28.8580    -4.2070 N.pl3        1 NAD367   0.0000
    19 N1A        -68.5860   -27.9160    -4.9770 N.ar         1 NAD367   0.0000
    20 C2A        -69.2820   -27.2680    -5.9340 C.ar         1 NAD367   0.0000
    21 N3A        -68.7130   -26.9180    -7.0960 N.ar         1 NAD367   0.0000
    22 C4A        -67.3950   -27.2050    -7.2950 C.ar         1 NAD367   0.0000
    23 O3         -63.4670   -29.2860   -13.8720 O.3          1 NAD367   0.0000
    24 PN         -62.6480   -30.5670   -13.4010 P.3          1 NAD367   0.0000
    25 O1N        -62.4040   -30.4870   -11.9170 O.co2        1 NAD367   0.0000
    26 O2N        -63.2630   -31.7630   -14.0790 O.co2        1 NAD367  -1.0000
    27 O5D        -61.2120   -30.4380   -14.0970 O.3          1 NAD367   0.0000
    28 C5D        -61.1370   -30.3690   -15.5120 C.3          1 NAD367   0.0000
    29 C4D        -59.7730   -29.8370   -15.8940 C.3          1 NAD367   0.0000
    30 O4D        -58.7650   -30.6290   -15.2670 O.3          1 NAD367   0.0000
    31 C3D        -59.5380   -29.9140   -17.3870 C.3          1 NAD367   0.0000
    32 O3D        -59.0970   -28.6430   -17.8530 O.3          1 NAD367   0.0000
    33 C2D        -58.4580   -30.9620   -17.5470 C.3          1 NAD367   0.0000
    34 O2D        -57.5740   -30.6860   -18.6180 O.3          1 NAD367   0.0000
    35 C1D        -57.7450   -30.9250   -16.2150 C.3          1 NAD367   0.0000
    36 N1N        -57.1040   -32.1800   -15.8460 N.ar         1 NAD367   1.0000
    37 C2N        -55.8090   -32.1500   -15.5160 C.ar         1 NAD367   0.0000
    38 C3N        -55.1500   -33.3130   -15.1360 C.ar         1 NAD367   0.0000
    39 C7N        -53.7020   -33.2370   -14.7670 C.2          1 NAD367   0.0000
    40 O7N        -52.9620   -34.3330   -14.7260 O.2          1 NAD367   0.0000
    41 N7N        -53.1660   -32.0650   -14.4760 N.am         1 NAD367   0.0000
    42 C4N        -55.8390   -34.5200   -15.1040 C.ar         1 NAD367   0.0000
    43 C5N        -57.1830   -34.5390   -15.4410 C.ar         1 NAD367   0.0000
    44 C6N        -57.8010   -33.3420   -15.8100 C.ar         1 NAD367   0.0000
    45 H5B1       -66.3489   -29.1917   -11.9664 H            1 NAD367   0.0000
    46 H5B2       -66.1069   -28.2993   -13.3124 H            1 NAD367   0.0000
    47 H4B        -67.8402   -27.2348   -12.3163 H            1 NAD367   0.0000
    48 H3B        -65.6584   -25.7172   -12.3399 H            1 NAD367   0.0000
    49 H5         -67.1569   -23.9904   -12.0997 H            1 NAD367   0.0000
    50 H2B        -65.1786   -25.6737   -10.0948 H            1 NAD367   0.0000
    51 H7         -67.1381   -24.0675    -9.3100 H            1 NAD367   0.0000
    52 H1B        -67.9256   -25.8661    -9.3720 H            1 NAD367   0.0000
    53 H8A        -64.5932   -27.4798    -8.6480 H            1 NAD367   0.0000
    54 H6A1       -67.0540   -29.1260    -3.3562 H            1 NAD367   0.0000
    55 H6A2       -65.6336   -29.0653    -4.3456 H            1 NAD367   0.0000
    56 H2A        -70.2432   -27.0440    -5.7729 H            1 NAD367   0.0000
    57 H5D1       -61.8474   -29.7562   -15.8581 H            1 NAD367   0.0000
    58 H5D2       -61.2648   -31.2811   -15.9016 H            1 NAD367   0.0000
    59 H4D        -59.6881   -28.8877   -15.5912 H            1 NAD367   0.0000
    60 H3D        -60.3730   -30.1930   -17.8613 H            1 NAD367   0.0000
    61 H17        -59.7415   -28.2957   -18.5342 H            1 NAD367   0.0000
    62 H2D        -58.8774   -31.8601   -17.6795 H            1 NAD367   0.0000
    63 H19        -56.8847   -31.4082   -18.6759 H            1 NAD367   0.0000
    64 H1D        -57.0667   -30.1903   -16.2181 H            1 NAD367   0.0000
    65 H2N        -55.3103   -31.2836   -15.5428 H            1 NAD367   0.0000
    66 H7N1       -52.1990   -32.0051   -14.2283 H            1 NAD367   0.0000
    67 H7N2       -53.7273   -31.2378   -14.5034 H            1 NAD367   0.0000
    68 H4N        -55.3708   -35.3636   -14.8412 H            1 NAD367   0.0000
    69 H5N        -57.7010   -35.3941   -15.4204 H            1 NAD367   0.0000
    70 H6N        -58.7715   -33.3423   -16.0511 H            1 NAD367   0.0000
@<TRIPOS>BOND
     1    1    2      ar
     2    1    3      ar
     3    1    4       1
     4    1   23       1
     5    4    5       1
     6    5    6       1
     7    6    7       1
     8    6    8       1
     9    7   12       1
    10    8    9       1
    11    8   10       1
    12   10   11       1
    13   10   12       1
    14   12   13       1
    15   13   14       1
    16   13   22       1
    17   14   15       2
    18   15   16       1
    19   16   17      ar
    20   16   22      ar
    21   17   18       1
    22   17   19      ar
    23   19   20      ar
    24   20   21      ar
    25   21   22      ar
    26   23   24       1
    27   24   25      ar
    28   24   26      ar
    29   24   27       1
    30   27   28       1
    31   28   29       1
    32   29   30       1
    33   29   31       1
    34   30   35       1
    35   31   32       1
    36   31   33       1
    37   33   34       1
    38   33   35       1
    39   35   36       1
    40   36   37      ar
    41   36   44      ar
    42   37   38      ar
    43   38   39       1
    44   38   42      ar
    45   39   40       2
    46   39   41      am
    47   42   43      ar
    48   43   44      ar
    49   44   70       1
    50    5   45       1
    51    5   46       1
    52    6   47       1
    53    8   48       1
    54    9   49       1
    55   10   50       1
    56   11   51       1
    57   12   52       1
    58   14   53       1
    59   18   54       1
    60   18   55       1
    61   20   56       1
    62   43   69       1
    63   28   57       1
    64   28   58       1
    65   29   59       1
    66   31   60       1
    67   32   61       1
    68   33   62       1
    69   34   63       1
    70   35   64       1
    71   37   65       1
    72   41   66       1
    73   41   67       1
    74   42   68       1
@<TRIPOS>SUBSTRUCTURE
     1 NAD367      1 GROUP             4 B     NAD     0 **** NAD B 367
