@<TRIPOS>MOLECULE
4iar_ERM_1_ligand
   79    86     1     0     0
SMALL
NO_CHARGES


@<TRIPOS>ATOM
     1 C1          -5.2790   -20.6210    23.2280 C.2          1 ERM2001   0.0000
     2 N1          -5.7670   -21.0350    24.4180 N.pl3        1 ERM2001   0.0000
     3 O1         -11.8370   -16.8650    19.9650 O.2          1 ERM2001   0.0000
     4 C10         -9.6800   -19.7850    23.9700 C.ar         1 ERM2001   0.0000
     5 C11         -9.4030   -20.4110    25.2090 C.ar         1 ERM2001   0.0000
     6 C12         -8.0790   -20.8960    25.4780 C.ar         1 ERM2001   0.0000
     7 C13         -7.1240   -20.7260    24.5240 C.ar         1 ERM2001   0.0000
     8 C14         -7.4020   -20.0990    23.3010 C.ar         1 ERM2001   0.0000
     9 C15         -6.8680   -16.9170    19.0890 C.3          1 ERM2001   0.0000
    10 C16        -11.5890   -17.8930    19.3670 C.2          1 ERM2001   0.0000
    11 C17        -13.7950   -17.9920    18.1670 C.3          1 ERM2001   0.0000
    12 C18        -14.7410   -17.9310    19.3350 C.2          1 ERM2001   0.0000
    13 C19        -16.0000   -16.1500    20.4370 C.3          1 ERM2001   0.0000
    14 N2          -7.7210   -18.0660    19.4930 N.4          1 ERM2001   1.0000
    15 C2          -6.2520   -20.0180    22.4920 C.2          1 ERM2001   0.0000
    16 O2         -13.7620   -16.6430    17.6890 O.3          1 ERM2001   0.0000
    17 C20        -16.8590   -15.0360    19.8170 C.2          1 ERM2001   0.0000
    18 C21        -17.2520   -13.4310    17.9460 C.3          1 ERM2001   0.0000
    19 C22        -16.2330   -12.6660    17.1290 C.3          1 ERM2001   0.0000
    20 C23        -14.9800   -13.5870    17.0410 C.3          1 ERM2001   0.0000
    21 C24        -15.4570   -14.8580    17.7680 C.3          1 ERM2001   0.0000
    22 C25        -14.4270   -15.6970    18.5240 C.3          1 ERM2001   0.0000
    23 C26        -14.2680   -18.9810    17.1160 C.3          1 ERM2001   0.0000
    24 C27        -15.3640   -15.6280    21.7010 C.3          1 ERM2001   0.0000
    25 C28        -14.7530   -16.6600    22.6300 C.ar         1 ERM2001   0.0000
    26 C29        -13.4090   -16.4960    23.0340 C.ar         1 ERM2001   0.0000
    27 C3          -6.3190   -19.4240    21.1140 C.3          1 ERM2001   0.0000
    28 N3         -12.4630   -18.4930    18.5240 N.am         1 ERM2001   0.0000
    29 O3         -15.1470   -18.8790    19.9770 O.2          1 ERM2001   0.0000
    30 C30        -12.8000   -17.4230    23.9000 C.ar         1 ERM2001   0.0000
    31 C31        -13.5570   -18.4870    24.4090 C.ar         1 ERM2001   0.0000
    32 C32        -14.9100   -18.6200    24.0440 C.ar         1 ERM2001   0.0000
    33 C33        -15.5160   -17.7270    23.1430 C.ar         1 ERM2001   0.0000
    34 C4          -7.5530   -18.4590    20.9550 C.3          1 ERM2001   0.0000
    35 N4         -15.0470   -16.6310    19.4630 N.am         1 ERM2001   0.0000
    36 O4         -17.8450   -14.6000    20.4360 O.2          1 ERM2001   0.0000
    37 C5          -9.0990   -17.6460    19.0530 C.3          1 ERM2001   0.0000
    38 N5         -16.5410   -14.4900    18.6520 N.am         1 ERM2001   0.0000
    39 O5         -13.4960   -14.9000    19.1730 O.3          1 ERM2001   0.0000
    40 C6         -10.1970   -18.5720    19.5430 C.3          1 ERM2001   0.0000
    41 C7          -9.9840   -19.1230    20.9300 C.2          1 ERM2001   0.0000
    42 C8          -8.8430   -18.9920    21.6000 C.2          1 ERM2001   0.0000
    43 C9          -8.6950   -19.6030    22.9850 C.ar         1 ERM2001   0.0000
    44 H1          -4.3324   -20.7412    22.9290 H            1 ERM2001   0.0000
    45 H2          -5.2310   -21.4980    25.1239 H            1 ERM2001   0.0000
    46 H3         -10.6088   -19.4612    23.7897 H            1 ERM2001   0.0000
    47 H4         -10.1253   -20.5147    25.8928 H            1 ERM2001   0.0000
    48 H5          -7.8641   -21.3472    26.3442 H            1 ERM2001   0.0000
    49 H6          -7.0239   -16.7094    18.1233 H            1 ERM2001   0.0000
    50 H7          -7.1006   -16.1180    19.6435 H            1 ERM2001   0.0000
    51 H8          -5.9058   -17.1509    19.2285 H            1 ERM2001   0.0000
    52 H9         -16.6038   -16.9084    20.6826 H            1 ERM2001   0.0000
    53 H10        -17.9447   -13.8275    17.3435 H            1 ERM2001   0.0000
    54 H11        -17.6924   -12.8188    18.6027 H            1 ERM2001   0.0000
    55 H12        -16.0007   -11.8045    17.5806 H            1 ERM2001   0.0000
    56 H13        -16.5910   -12.4771    16.2146 H            1 ERM2001   0.0000
    57 H14        -14.1953   -13.1767    17.5057 H            1 ERM2001   0.0000
    58 H15        -14.7397   -13.7820    16.0901 H            1 ERM2001   0.0000
    59 H16        -15.8509   -15.4544    17.0686 H            1 ERM2001   0.0000
    60 H17        -13.6180   -18.9963    16.3562 H            1 ERM2001   0.0000
    61 H18        -14.3294   -19.8934    17.5206 H            1 ERM2001   0.0000
    62 H19        -15.1681   -18.7045    16.7792 H            1 ERM2001   0.0000
    63 H20        -16.0677   -15.1366    22.2142 H            1 ERM2001   0.0000
    64 H21        -14.6395   -14.9918    21.4358 H            1 ERM2001   0.0000
    65 H22        -12.8847   -15.7124    22.7008 H            1 ERM2001   0.0000
    66 H23         -6.3979   -20.1637    20.4457 H            1 ERM2001   0.0000
    67 H24         -5.4798   -18.9079    20.9424 H            1 ERM2001   0.0000
    68 H25        -12.1744   -19.3551    18.1074 H            1 ERM2001   0.0000
    69 H26        -11.8368   -17.3236    24.1497 H            1 ERM2001   0.0000
    70 H27        -13.1373   -19.1495    25.0294 H            1 ERM2001   0.0000
    71 H28        -15.4513   -19.3651    24.4336 H            1 ERM2001   0.0000
    72 H29        -16.4709   -17.8471    22.8714 H            1 ERM2001   0.0000
    73 H30         -7.3189   -17.6201    21.4464 H            1 ERM2001   0.0000
    74 H31         -9.1211   -17.6293    18.0534 H            1 ERM2001   0.0000
    75 H32         -9.2781   -16.7276    19.4057 H            1 ERM2001   0.0000
    76 H33        -12.9004   -15.4736    19.7354 H            1 ERM2001   0.0000
    77 H34        -10.1919   -19.3597    18.9270 H            1 ERM2001   0.0000
    78 H35        -10.7386   -19.6115    21.3681 H            1 ERM2001   0.0000
    79 H36         -7.4526   -18.8520    18.9361 H            1 ERM2001   0.0000
@<TRIPOS>BOND
     1    1    2       1
     2    1   15       2
     3    2    7       1
     4    3   10       2
     5    4    5      ar
     6    4   43      ar
     7    5    6      ar
     8    6    7      ar
     9    7    8      ar
    10    8   15       1
    11    8   43      ar
    12    9   14       1
    13   10   28      am
    14   10   40       1
    15   11   12       1
    16   11   16       1
    17   11   23       1
    18   11   28       1
    19   12   29       2
    20   12   35      am
    21   13   17       1
    22   13   24       1
    23   13   35       1
    24   14   34       1
    25   14   37       1
    26   15   27       1
    27   16   22       1
    28   17   36       2
    29   17   38      am
    30   18   19       1
    31   18   38       1
    32   19   20       1
    33   20   21       1
    34   21   22       1
    35   21   38       1
    36   22   35       1
    37   22   39       1
    38   24   25       1
    39   25   26      ar
    40   25   33      ar
    41   26   30      ar
    42   27   34       1
    43   30   31      ar
    44   31   32      ar
    45   32   33      ar
    46   34   42       1
    47   37   40       1
    48   40   41       1
    49   41   42       2
    50   42   43       1
    51    1   44       1
    52    2   45       1
    53    4   46       1
    54    5   47       1
    55    6   48       1
    56    9   49       1
    57    9   50       1
    58    9   51       1
    59   13   52       1
    60   18   53       1
    61   18   54       1
    62   19   55       1
    63   19   56       1
    64   20   57       1
    65   20   58       1
    66   21   59       1
    67   23   60       1
    68   23   61       1
    69   23   62       1
    70   24   63       1
    71   24   64       1
    72   26   65       1
    73   27   66       1
    74   27   67       1
    75   28   68       1
    76   30   69       1
    77   31   70       1
    78   32   71       1
    79   33   72       1
    80   34   73       1
    81   37   74       1
    82   37   75       1
    83   39   76       1
    84   40   77       1
    85   41   78       1
    86   14   79       1
@<TRIPOS>SUBSTRUCTURE
     1 ERM2001     1 GROUP             4 A     ERM     0 **** ERM A2001
