@<TRIPOS>MOLECULE
2ovv_PFH_1_ligand
   53    57     1     0     0
SMALL
NO_CHARGES


@<TRIPOS>ATOM
     1 C4          14.0300    16.0490    44.5000 C.ar         1 PFH999   0.0000
     2 C7          11.9630    18.9340    45.6820 C.ar         1 PFH999   0.0000
     3 C6          12.5080    17.9450    44.7740 C.ar         1 PFH999   0.0000
     4 C9          13.2430    18.0350    47.3940 C.ar         1 PFH999   0.0000
     5 C21         11.6520    23.4010    42.9090 C.ar         1 PFH999   0.0000
     6 C18          9.6890    21.8050    45.6750 C.3          1 PFH999   0.0000
     7 C16         11.2760    20.7050    44.1440 C.3          1 PFH999   0.0000
     8 C19         10.4610    20.6890    46.4120 C.3          1 PFH999   0.0000
     9 C26         12.8740    23.9740    40.4070 C.ar         1 PFH999   0.0000
    10 C14         11.4690    17.4120    40.5380 C.3          1 PFH999   0.0000
    11 O13         12.4910    16.6520    41.2220 O.3          1 PFH999   0.0000
    12 C2          12.7360    16.8470    42.5880 C.ar         1 PFH999   0.0000
    13 C1          13.6810    15.9580    43.1560 C.ar         1 PFH999   0.0000
    14 O11         14.1790    15.0330    42.2960 O.3          1 PFH999   0.0000
    15 C12         15.3520    14.3720    42.7200 C.3          1 PFH999   0.0000
    16 C3          12.1710    17.8150    43.3970 C.ar         1 PFH999   0.0000
    17 C5          13.4460    17.0310    45.3180 C.ar         1 PFH999   0.0000
    18 N10         13.7720    17.1170    46.6110 N.ar         1 PFH999   0.0000
    19 N8          12.3590    18.9220    46.9600 N.ar         1 PFH999   0.0000
    20 N15         10.9920    19.8480    45.3130 N.pl3        1 PFH999   0.0000
    21 C17         10.3440    21.9620    44.2710 C.3          1 PFH999   0.0000
    22 O20         11.1040    23.1950    44.1640 O.3          1 PFH999   0.0000
    23 C22         12.4780    24.5290    42.7510 C.ar         1 PFH999   0.0000
    24 C23         13.0710    24.8060    41.5440 C.ar         1 PFH999   0.0000
    25 C27         13.4560    24.2520    39.1570 C.ar         1 PFH999   0.0000
    26 C25         12.0410    22.8210    40.5490 C.ar         1 PFH999   0.0000
    27 C24         11.4450    22.5700    41.8030 C.ar         1 PFH999   0.0000
    28 C30         11.8030    21.9570    39.4600 C.ar         1 PFH999   0.0000
    29 C29         12.3650    22.2440    38.2660 C.ar         1 PFH999   0.0000
    30 C28         13.1920    23.3850    38.1240 C.ar         1 PFH999   0.0000
    31 H1          14.6989    15.4132    44.8851 H            1 PFH999   0.0000
    32 H2          13.5196    18.0637    48.3546 H            1 PFH999   0.0000
    33 H3           9.7574    22.6633    46.1836 H            1 PFH999   0.0000
    34 H4           8.7267    21.5506    45.5784 H            1 PFH999   0.0000
    35 H5          11.0758    20.2113    43.2977 H            1 PFH999   0.0000
    36 H6          12.2358    20.9856    44.1471 H            1 PFH999   0.0000
    37 H7           9.8495    20.1615    47.0017 H            1 PFH999   0.0000
    38 H8          11.2048    21.0715    46.9602 H            1 PFH999   0.0000
    39 H9          11.4384    17.1394    39.5764 H            1 PFH999   0.0000
    40 H10         10.5813    17.2349    40.9631 H            1 PFH999   0.0000
    41 H11         11.6803    18.3874    40.6014 H            1 PFH999   0.0000
    42 H12         15.6358    13.7155    42.0211 H            1 PFH999   0.0000
    43 H13         16.0798    15.0429    42.8623 H            1 PFH999   0.0000
    44 H14         15.1714    13.8893    43.5770 H            1 PFH999   0.0000
    45 H15         11.5029    18.4453    43.0016 H            1 PFH999   0.0000
    46 H16          9.6389    21.9350    43.5624 H            1 PFH999   0.0000
    47 H17         12.6354    25.1376    43.5287 H            1 PFH999   0.0000
    48 H18         13.6561    25.6128    41.4621 H            1 PFH999   0.0000
    49 H19         14.0411    25.0521    39.0247 H            1 PFH999   0.0000
    50 H20         10.8538    21.7699    41.9047 H            1 PFH999   0.0000
    51 H21         11.2282    21.1461    39.5700 H            1 PFH999   0.0000
    52 H22         12.1968    21.6492    37.4799 H            1 PFH999   0.0000
    53 H23         13.6027    23.5682    37.2308 H            1 PFH999   0.0000
@<TRIPOS>BOND
     1    1   13      ar
     2    1   17      ar
     3    2    3      ar
     4    2   19      ar
     5    2   20       1
     6    3   16      ar
     7    3   17      ar
     8    4   18      ar
     9    4   19      ar
    10    5   22       1
    11    5   23      ar
    12    5   27      ar
    13    6    8       1
    14    6   21       1
    15    7   20       1
    16    7   21       1
    17    8   20       1
    18    9   24      ar
    19    9   25      ar
    20    9   26      ar
    21   10   11       1
    22   11   12       1
    23   12   13      ar
    24   12   16      ar
    25   13   14       1
    26   14   15       1
    27   17   18      ar
    28   21   22       1
    29   23   24      ar
    30   25   30      ar
    31   26   27      ar
    32   26   28      ar
    33   28   29      ar
    34   29   30      ar
    35    1   31       1
    36    4   32       1
    37    6   33       1
    38    6   34       1
    39    7   35       1
    40    7   36       1
    41    8   37       1
    42    8   38       1
    43   10   39       1
    44   10   40       1
    45   10   41       1
    46   15   42       1
    47   15   43       1
    48   15   44       1
    49   16   45       1
    50   21   46       1
    51   23   47       1
    52   24   48       1
    53   25   49       1
    54   27   50       1
    55   28   51       1
    56   29   52       1
    57   30   53       1
@<TRIPOS>SUBSTRUCTURE
     1 PFH999      1 GROUP             4 A     PFH     0 **** PFH A 999
