@<TRIPOS>MOLECULE
2xuz_EB4_1_ligand
   70    73     1     0     0
SMALL
NO_CHARGES


@<TRIPOS>ATOM
     1 O6          -6.2640   -15.8570    10.7310 O.3          1 EB41300  -1.0000
     2 O4          -5.3840   -16.7480    13.3240 O.3          1 EB41300   0.0000
     3 O5          -8.1890   -16.5500    12.7760 O.3          1 EB41300  -1.0000
     4 N1          -4.0910   -21.3350    11.8160 N.am         1 EB41300   0.0000
     5 C5          -9.2690   -17.3290    13.0480 C.ar         1 EB41300   0.0000
     6 C4          -4.2840   -17.5070    13.5710 C.ar         1 EB41300   0.0000
     7 C1          -4.2290   -18.7610    12.9770 C.ar         1 EB41300   0.0000
     8 C2          -9.1230   -18.6930    12.8010 C.ar         1 EB41300   0.0000
     9 C6          -6.3860   -16.1120     9.3920 C.ar         1 EB41300   0.0000
    10 C8         -10.4740   -16.8250    13.5370 C.ar         1 EB41300   0.0000
    11 N2          -8.9270   -21.4460    12.1840 N.am         1 EB41300   0.0000
    12 C9          -6.2370   -15.1160     8.4390 C.ar         1 EB41300   0.0000
    13 C10         -2.1690   -17.9190    14.5930 C.ar         1 EB41300   0.0000
    14 O3          -6.8290   -18.3630     9.9370 O.3          1 EB41300  -1.0000
    15 N3          -6.8650   -20.1170     8.0650 N.am         1 EB41300   0.0000
    16 C16         -3.1470   -19.6260    13.1580 C.ar         1 EB41300   0.0000
    17 C7          -3.2540   -17.0810    14.3870 C.ar         1 EB41300   0.0000
    18 C3          -6.6750   -17.4180     8.9890 C.ar         1 EB41300   0.0000
    19 C11        -11.5220   -17.7130    13.7800 C.ar         1 EB41300   0.0000
    20 O1          -5.2730   -19.1240    12.1770 O.3          1 EB41300  -1.0000
    21 O2          -7.9270   -19.1390    12.3340 O.3          1 EB41300  -1.0000
    22 C12         -6.3700   -15.4510     7.0980 C.ar         1 EB41300   0.0000
    23 C15         -6.6500   -16.7630     6.7080 C.ar         1 EB41300   0.0000
    24 C14        -11.3590   -19.0800    13.5370 C.ar         1 EB41300   0.0000
    25 C13         -2.1220   -19.1820    13.9920 C.ar         1 EB41300   0.0000
    26 O7          -2.1550   -21.6940    12.9310 O.2          1 EB41300   0.0000
    27 C19         -3.0660   -20.9260    12.6000 C.2          1 EB41300   0.0000
    28 C22         -4.1190   -22.7020    11.2620 C.3          1 EB41300   0.0000
    29 C25         -4.2570   -22.6300     9.8770 C.2          1 EB41300   0.0000
    30 O10         -3.2970   -22.8640     9.1410 O.2          1 EB41300   0.0000
    31 O15         -5.4680   -22.2240     9.4390 O.3          1 EB41300   0.0000
    32 C30         -5.5640   -22.1270     8.0170 C.3          1 EB41300   0.0000
    33 C24         -6.9370   -21.5510     7.6830 C.3          1 EB41300   0.0000
    34 C21         -7.0720   -19.0910     7.1900 C.2          1 EB41300   0.0000
    35 C18         -6.8190   -17.7830     7.6480 C.ar         1 EB41300   0.0000
    36 O9          -7.3560   -19.2660     6.0020 O.2          1 EB41300   0.0000
    37 C27         -7.9020   -22.3470     8.3420 C.2          1 EB41300   0.0000
    38 O12         -8.0490   -23.5170     7.9830 O.2          1 EB41300   0.0000
    39 C28         -5.2470   -23.5150    11.9260 C.3          1 EB41300   0.0000
    40 O13         -6.4940   -22.7430    11.9820 O.3          1 EB41300   0.0000
    41 C26         -7.6000   -23.4640    11.6160 C.2          1 EB41300   0.0000
    42 O11         -7.5410   -24.6390    11.2590 O.2          1 EB41300   0.0000
    43 C23         -8.8630   -22.8300    11.6490 C.3          1 EB41300   0.0000
    44 C29         -9.4130   -22.7340    10.1960 C.3          1 EB41300   0.0000
    45 O14         -8.5950   -21.7940     9.3830 O.3          1 EB41300   0.0000
    46 C20        -10.0560   -20.9750    12.7770 C.2          1 EB41300   0.0000
    47 O8         -11.0670   -21.6680    12.9200 O.2          1 EB41300   0.0000
    48 C17        -10.1450   -19.6060    13.0610 C.ar         1 EB41300   0.0000
    49 H1          -5.4655   -15.8383    13.7312 H            1 EB41300   0.0000
    50 H2          -4.8381   -20.7030    11.6099 H            1 EB41300   0.0000
    51 H3         -10.5845   -15.8463    13.7100 H            1 EB41300   0.0000
    52 H4          -8.1269   -20.8511    12.1068 H            1 EB41300   0.0000
    53 H5          -6.0377   -14.1749     8.7120 H            1 EB41300   0.0000
    54 H6          -1.4139   -17.6186    15.1757 H            1 EB41300   0.0000
    55 H7          -6.6531   -19.8915     9.0159 H            1 EB41300   0.0000
    56 H8          -3.2905   -16.1816    14.8226 H            1 EB41300   0.0000
    57 H9         -12.3939   -17.3701    14.1296 H            1 EB41300   0.0000
    58 H10         -6.2637   -14.7422     6.4006 H            1 EB41300   0.0000
    59 H11         -6.7313   -16.9769     5.7345 H            1 EB41300   0.0000
    60 H12        -12.1255   -19.6997    13.7060 H            1 EB41300   0.0000
    61 H13         -1.3376   -19.7778    14.1642 H            1 EB41300   0.0000
    62 H14         -3.2467   -23.1446    11.4697 H            1 EB41300   0.0000
    63 H15         -5.4659   -23.0335     7.6064 H            1 EB41300   0.0000
    64 H16         -4.8473   -21.5235     7.6676 H            1 EB41300   0.0000
    65 H17         -7.0836   -21.6159     6.6959 H            1 EB41300   0.0000
    66 H18         -4.9709   -23.7570    12.8562 H            1 EB41300   0.0000
    67 H19         -5.4030   -24.3491    11.3970 H            1 EB41300   0.0000
    68 H20         -9.4864   -23.4013    12.1828 H            1 EB41300   0.0000
    69 H21        -10.3576   -22.4070    10.2239 H            1 EB41300   0.0000
    70 H22         -9.3864   -23.6405     9.7747 H            1 EB41300   0.0000
@<TRIPOS>BOND
     1    1    9       1
     2    2    6       1
     3    3    5       1
     4    4   27      am
     5    4   28       1
     6    5    8      ar
     7    5   10      ar
     8    6    7      ar
     9    6   17      ar
    10    7   16      ar
    11    7   20       1
    12    8   21       1
    13    8   48      ar
    14    9   12      ar
    15    9   18      ar
    16   10   19      ar
    17   11   43       1
    18   11   46      am
    19   12   22      ar
    20   13   17      ar
    21   13   25      ar
    22   14   18       1
    23   15   33       1
    24   15   34      am
    25   16   25      ar
    26   16   27       1
    27   18   35      ar
    28   19   24      ar
    29   22   23      ar
    30   23   35      ar
    31   24   48      ar
    32   26   27       2
    33   28   29       1
    34   28   39       1
    35   29   30       2
    36   29   31       1
    37   31   32       1
    38   32   33       1
    39   33   37       1
    40   34   35       1
    41   34   36       2
    42   37   38       2
    43   37   45       1
    44   39   40       1
    45   40   41       1
    46   41   42       2
    47   41   43       1
    48   43   44       1
    49   44   45       1
    50   46   47       2
    51   46   48       1
    52   44   70       1
    53    2   49       1
    54   39   67       1
    55    4   50       1
    56   10   51       1
    57   11   52       1
    58   12   53       1
    59   13   54       1
    60   44   69       1
    61   15   55       1
    62   17   56       1
    63   19   57       1
    64   43   68       1
    65   39   66       1
    66   22   58       1
    67   23   59       1
    68   24   60       1
    69   25   61       1
    70   28   62       1
    71   32   63       1
    72   32   64       1
    73   33   65       1
@<TRIPOS>SUBSTRUCTURE
     1 EB41300     1 GROUP             4 A     EB4     0 **** EB4 A1300
