@<TRIPOS>MOLECULE
1o5i_NAD_1_ligand
   56    59     1     0     0
SMALL
NO_CHARGES


@<TRIPOS>ATOM
     1 PA          64.9790    23.6380    52.9700 P.3          1 NAD256   0.0000
     2 O1A         66.0160    22.9250    52.2020 O.co2        1 NAD256   0.0000
     3 O2A         65.6830    24.7170    53.7070 O.co2        1 NAD256  -1.0000
     4 O5B         64.2630    22.4670    53.8310 O.3          1 NAD256   0.0000
     5 C5B         63.6690    21.3740    53.1760 C.3          1 NAD256   0.0000
     6 C4B         64.1360    19.9830    53.6260 C.3          1 NAD256   0.0000
     7 O4B         63.8990    19.0870    52.5660 O.3          1 NAD256   0.0000
     8 C3B         65.5890    19.7540    53.9490 C.3          1 NAD256   0.0000
     9 O3B         65.5870    19.3420    55.2770 O.3          1 NAD256   0.0000
    10 C2B         66.1070    18.6310    53.0570 C.3          1 NAD256   0.0000
    11 O2B         66.8940    17.6400    53.7000 O.3          1 NAD256   0.0000
    12 C1B         64.8140    18.0260    52.5870 C.3          1 NAD256   0.0000
    13 N9A         64.8310    17.4610    51.2400 N.pl3        1 NAD256   0.0000
    14 C8A         65.4690    17.9310    50.1130 C.2          1 NAD256   0.0000
    15 N7A         65.1860    17.0940    49.0750 N.2          1 NAD256   0.0000
    16 C5A         64.3630    16.1210    49.5330 C.ar         1 NAD256   0.0000
    17 C6A         63.7860    15.0240    48.9250 C.ar         1 NAD256   0.0000
    18 N6A         64.1730    14.7000    47.7020 N.pl3        1 NAD256   0.0000
    19 N1A         62.9840    14.1750    49.6710 N.ar         1 NAD256   0.0000
    20 C2A         62.7600    14.4040    51.0160 C.ar         1 NAD256   0.0000
    21 N3A         63.3370    15.4990    51.6080 N.ar         1 NAD256   0.0000
    22 C4A         64.1290    16.3390    50.8880 C.ar         1 NAD256   0.0000
    23 O3          63.8110    24.2750    52.0410 O.3          1 NAD256   0.0000
    24 PN          62.2460    24.5630    52.4150 P.3          1 NAD256   0.0000
    25 O1N         62.1220    26.0020    52.7440 O.co2        1 NAD256   0.0000
    26 O2N         61.6590    23.5660    53.3590 O.co2        1 NAD256  -1.0000
    27 O5D         61.6080    24.3390    50.9400 O.3          1 NAD256   0.0000
    28 C5D         61.3720    25.4770    50.1420 C.3          1 NAD256   0.0000
    29 C4D         60.6540    25.1130    48.8490 C.3          1 NAD256   0.0000
    30 O4D         59.7230    26.1300    48.5110 O.3          1 NAD256   0.0000
    31 C3D         61.6750    25.0670    47.7250 C.3          1 NAD256   0.0000
    32 O3D         61.4620    23.9440    46.8980 O.3          1 NAD256   0.0000
    33 C2D         61.5170    26.3990    47.0010 C.3          1 NAD256   0.0000
    34 O2D         61.3930    26.2280    45.5940 O.3          1 NAD256   0.0000
    35 C1D         60.3000    27.0870    47.6390 C.3          1 NAD256   0.0000
    36 H5B1        63.8637    21.4605    52.1990 H            1 NAD256   0.0000
    37 H5B2        62.6817    21.4280    53.3252 H            1 NAD256   0.0000
    38 H4B         63.5859    19.7004    54.4119 H            1 NAD256   0.0000
    39 H3B         66.1243    20.5901    53.8286 H            1 NAD256   0.0000
    40 H5          65.9874    18.4280    55.3431 H            1 NAD256   0.0000
    41 H2B         66.6073    19.0143    52.2806 H            1 NAD256   0.0000
    42 H7          67.8035    17.6156    53.2850 H            1 NAD256   0.0000
    43 H1B         64.5100    17.3319    53.2396 H            1 NAD256   0.0000
    44 H8A         66.0430    18.7484    50.0646 H            1 NAD256   0.0000
    45 H6A1        63.7684    13.9093    47.2426 H            1 NAD256   0.0000
    46 H6A2        64.8701    15.2458    47.2371 H            1 NAD256   0.0000
    47 H2A         62.1867    13.7815    51.5487 H            1 NAD256   0.0000
    48 H5D1        62.2480    25.9042    49.9181 H            1 NAD256   0.0000
    49 H5D2        60.8079    26.1231    50.6561 H            1 NAD256   0.0000
    50 H4D         60.1923    24.2307    48.9402 H            1 NAD256   0.0000
    51 H3D         62.5929    25.0148    48.1182 H            1 NAD256   0.0000
    52 H17         61.5446    23.1090    47.4420 H            1 NAD256   0.0000
    53 H2D         62.3273    26.9563    47.1823 H            1 NAD256   0.0000
    54 H19         60.8332    26.9657    45.2166 H            1 NAD256   0.0000
    55 H1D1        60.5874    27.8958    48.1520 H            1 NAD256   0.0000
    56 H1D2        59.6434    27.3553    46.9341 H            1 NAD256   0.0000
@<TRIPOS>BOND
     1    1    2      ar
     2    1    3      ar
     3    1    4       1
     4    1   23       1
     5    4    5       1
     6    5    6       1
     7    6    7       1
     8    6    8       1
     9    7   12       1
    10    8    9       1
    11    8   10       1
    12   10   11       1
    13   10   12       1
    14   12   13       1
    15   13   14       1
    16   13   22       1
    17   14   15       2
    18   15   16       1
    19   16   17      ar
    20   16   22      ar
    21   17   18       1
    22   17   19      ar
    23   19   20      ar
    24   20   21      ar
    25   21   22      ar
    26   23   24       1
    27   24   25      ar
    28   24   26      ar
    29   24   27       1
    30   27   28       1
    31   28   29       1
    32   29   30       1
    33   29   31       1
    34   30   35       1
    35   31   32       1
    36   31   33       1
    37   33   34       1
    38   33   35       1
    39   35   56       1
    40    5   36       1
    41    5   37       1
    42    6   38       1
    43    8   39       1
    44    9   40       1
    45   10   41       1
    46   11   42       1
    47   12   43       1
    48   14   44       1
    49   18   45       1
    50   18   46       1
    51   20   47       1
    52   35   55       1
    53   28   48       1
    54   28   49       1
    55   29   50       1
    56   31   51       1
    57   32   52       1
    58   33   53       1
    59   34   54       1
@<TRIPOS>SUBSTRUCTURE
     1 NAD256      1 GROUP             4 B     NAD     0 **** NAD B 256
