@<TRIPOS>MOLECULE
4zas_TYD_2_ligand
   38    39     1     0     0
SMALL
NO_CHARGES


@<TRIPOS>ATOM
     1 PA          14.9760    51.9320    29.7180 P.3          1 TYD500   0.0000
     2 O1A         15.2100    53.0620    28.8170 O.co2        1 TYD500   0.0000
     3 O2A         13.6930    52.2890    30.3270 O.co2        1 TYD500  -1.0000
     4 O3A         16.1870    51.7790    30.8390 O.3          1 TYD500   0.0000
     5 PB          17.2370    52.9640    31.3350 P.3          1 TYD500   0.0000
     6 O1B         17.4660    54.0450    30.3620 O.co2        1 TYD500   0.0000
     7 O2B         18.5720    52.4840    31.7100 O.co2        1 TYD500  -1.0000
     8 O3B         16.7930    53.6240    32.5610 O.co2        1 TYD500  -1.0000
     9 O5'         14.8910    50.5280    28.8650 O.3          1 TYD500   0.0000
    10 C5'         16.1210    49.9290    28.5730 C.3          1 TYD500   0.0000
    11 C4'         15.9800    48.9540    27.4140 C.3          1 TYD500   0.0000
    12 O4'         15.8720    47.6220    27.9570 O.3          1 TYD500   0.0000
    13 C3'         14.7580    49.2820    26.6320 C.3          1 TYD500   0.0000
    14 O3'         15.0480    49.2650    25.2120 O.3          1 TYD500   0.0000
    15 C2'         13.7460    48.2580    26.9060 C.3          1 TYD500   0.0000
    16 C1'         14.5010    47.1710    27.6460 C.3          1 TYD500   0.0000
    17 N1          13.7810    46.8920    28.8240 N.pl3        1 TYD500   0.0000
    18 C2          13.0410    45.6500    28.8990 C.2          1 TYD500   0.0000
    19 O2          13.0710    44.8950    27.9820 O.2          1 TYD500   0.0000
    20 N3          12.3030    45.3520    30.0700 N.pl3        1 TYD500   0.0000
    21 C4          12.2880    46.2640    31.1550 C.2          1 TYD500   0.0000
    22 O4          11.6640    46.0110    32.1280 O.2          1 TYD500   0.0000
    23 C5          13.0650    47.5750    31.0640 C.2          1 TYD500   0.0000
    24 C5M         13.0530    48.5650    32.2300 C.3          1 TYD500   0.0000
    25 C6          13.7630    47.8590    29.9510 C.2          1 TYD500   0.0000
    26 H5'1        16.4460    49.4356    29.3798 H            1 TYD500   0.0000
    27 H5'2        16.7818    50.6382    28.3273 H            1 TYD500   0.0000
    28 H4'         16.7847    49.0134    26.8233 H            1 TYD500   0.0000
    29 H3'         14.4135    50.1820    26.8990 H            1 TYD500   0.0000
    30 H5          14.2184    49.4870    24.6997 H            1 TYD500   0.0000
    31 H2'1        13.3608    47.9040    26.0537 H            1 TYD500   0.0000
    32 H2'2        13.0119    48.6291    27.4747 H            1 TYD500   0.0000
    33 H1'         14.5419    46.3487    27.0783 H            1 TYD500   0.0000
    34 H9          11.7907    44.4954    30.1318 H            1 TYD500   0.0000
    35 H5M1        13.6112    49.3613    31.9969 H            1 TYD500   0.0000
    36 H5M2        12.1137    48.8573    32.4094 H            1 TYD500   0.0000
    37 H5M3        13.4263    48.1236    33.0459 H            1 TYD500   0.0000
    38 H13         14.2687    48.7189    29.8820 H            1 TYD500   0.0000
@<TRIPOS>BOND
     1    1    2      ar
     2    1    3      ar
     3    1    4       1
     4    1    9       1
     5    4    5       1
     6    5    6      ar
     7    5    7      ar
     8    5    8      ar
     9    9   10       1
    10   10   11       1
    11   11   12       1
    12   11   13       1
    13   12   16       1
    14   13   14       1
    15   13   15       1
    16   15   16       1
    17   16   17       1
    18   17   18       1
    19   17   25       1
    20   18   19       2
    21   18   20       1
    22   20   21       1
    23   21   22       2
    24   21   23       1
    25   23   24       1
    26   23   25       2
    27   25   38       1
    28   24   37       1
    29   24   36       1
    30   10   26       1
    31   10   27       1
    32   11   28       1
    33   13   29       1
    34   14   30       1
    35   15   31       1
    36   15   32       1
    37   16   33       1
    38   20   34       1
    39   24   35       1
@<TRIPOS>SUBSTRUCTURE
     1 TYD500      1 GROUP             4 E     TYD     0 **** TYD E 500
