@<TRIPOS>MOLECULE
3qem_QEM_1_ligand
   55    57     1     0     0
SMALL
NO_CHARGES


@<TRIPOS>ATOM
     1 C           90.3090     9.4610   -32.0140 C.ar         1 QEM396   0.0000
     2 N           85.7180     6.4090   -32.3030 N.4          1 QEM396   1.0000
     3 O           92.0740    12.7470   -31.8080 O.3          1 QEM396   0.0000
     4 C01         80.5040     3.1050   -31.3310 C.ar         1 QEM396   0.0000
     5 O01         87.9650     9.0930   -34.7650 O.3          1 QEM396   0.0000
     6 C02         81.8930     2.9090   -31.1000 C.ar         1 QEM396   0.0000
     7 C03         82.4780     1.6770   -31.3330 C.ar         1 QEM396   0.0000
     8 C04         81.6890     0.6110   -31.8060 C.ar         1 QEM396   0.0000
     9 C05         80.3040     0.8100   -32.0490 C.ar         1 QEM396   0.0000
    10 C06         79.7150     2.0390   -31.8150 C.ar         1 QEM396   0.0000
    11 C07         82.7440     4.0560   -30.5850 C.3          1 QEM396   0.0000
    12 C08         84.0680     4.2060   -31.4010 C.3          1 QEM396   0.0000
    13 C09         84.9880     4.8830   -30.5240 C.3          1 QEM396   0.0000
    14 C10         86.1390     5.5770   -31.1970 C.3          1 QEM396   0.0000
    15 C11         84.9960     5.6140   -33.2550 C.3          1 QEM396   0.0000
    16 C12         83.8010     4.9540   -32.6460 C.3          1 QEM396   0.0000
    17 C13         86.3600     7.3130   -33.2510 C.3          1 QEM396   0.0000
    18 C14         87.2370     8.3710   -32.6290 C.3          1 QEM396   0.0000
    19 C15         88.4050     8.6430   -33.5170 C.3          1 QEM396   0.0000
    20 C16         89.3760     9.7090   -33.0300 C.ar         1 QEM396   0.0000
    21 C17         86.3920     9.6320   -32.3450 C.3          1 QEM396   0.0000
    22 C18         89.3610    10.9500   -33.6230 C.ar         1 QEM396   0.0000
    23 C19         90.2480    11.9630   -33.2210 C.ar         1 QEM396   0.0000
    24 C20         91.1630    11.7190   -32.2190 C.ar         1 QEM396   0.0000
    25 C21         91.1760    10.4590   -31.6210 C.ar         1 QEM396   0.0000
    26 H1          90.3460     8.5631   -31.5753 H            1 QEM396   0.0000
    27 H2          92.7364    12.5666   -31.0809 H            1 QEM396   0.0000
    28 H3          80.0868     3.9958   -31.1511 H            1 QEM396   0.0000
    29 H4          86.9657     9.1284   -34.7732 H            1 QEM396   0.0000
    30 H5          83.4551     1.5445   -31.1665 H            1 QEM396   0.0000
    31 H6          82.1030    -0.2843   -31.9705 H            1 QEM396   0.0000
    32 H7          79.7486     0.0530   -32.3931 H            1 QEM396   0.0000
    33 H8          78.7389     2.1715   -31.9871 H            1 QEM396   0.0000
    34 H9          82.9719     3.8853   -29.6264 H            1 QEM396   0.0000
    35 H10         82.2210     4.9053   -30.6572 H            1 QEM396   0.0000
    36 H11         84.4263     3.2999   -31.6260 H            1 QEM396   0.0000
    37 H12         85.3647     4.2058   -29.8919 H            1 QEM396   0.0000
    38 H13         84.4737     5.5693   -30.0097 H            1 QEM396   0.0000
    39 H14         86.6047     6.1512   -30.5236 H            1 QEM396   0.0000
    40 H15         86.7736     4.8847   -31.5406 H            1 QEM396   0.0000
    41 H16         85.6063     4.9078   -33.6141 H            1 QEM396   0.0000
    42 H17         84.6922     6.2039   -34.0031 H            1 QEM396   0.0000
    43 H18         83.1249     5.6624   -32.4434 H            1 QEM396   0.0000
    44 H19         83.4238     4.3154   -33.3168 H            1 QEM396   0.0000
    45 H20         85.6433     7.7730   -33.7752 H            1 QEM396   0.0000
    46 H21         86.9249     6.7653   -33.8681 H            1 QEM396   0.0000
    47 H22         87.5805     8.0209   -31.7575 H            1 QEM396   0.0000
    48 H23         88.9099     7.7897   -33.6474 H            1 QEM396   0.0000
    49 H24         86.9710    10.3353   -31.9325 H            1 QEM396   0.0000
    50 H25         86.0086     9.9763   -33.2020 H            1 QEM396   0.0000
    51 H26         85.6492     9.4009   -31.7166 H            1 QEM396   0.0000
    52 H27         88.7055    11.1351   -34.3551 H            1 QEM396   0.0000
    53 H28         90.2156    12.8602   -33.6614 H            1 QEM396   0.0000
    54 H29         91.8310    10.2744   -30.8882 H            1 QEM396   0.0000
    55 H30         85.0033     6.9787   -31.8971 H            1 QEM396   0.0000
@<TRIPOS>BOND
     1    1   20      ar
     2    1   25      ar
     3    2   14       1
     4    2   15       1
     5    2   17       1
     6    3   24       1
     7    4    6      ar
     8    4   10      ar
     9    5   19       1
    10    6    7      ar
    11    6   11       1
    12    7    8      ar
    13    8    9      ar
    14    9   10      ar
    15   11   12       1
    16   12   13       1
    17   12   16       1
    18   13   14       1
    19   15   16       1
    20   17   18       1
    21   18   19       1
    22   18   21       1
    23   19   20       1
    24   20   22      ar
    25   22   23      ar
    26   23   24      ar
    27   24   25      ar
    28    1   26       1
    29    3   27       1
    30    4   28       1
    31    5   29       1
    32    7   30       1
    33    8   31       1
    34    9   32       1
    35   10   33       1
    36   11   34       1
    37   11   35       1
    38   12   36       1
    39   13   37       1
    40   13   38       1
    41   14   39       1
    42   14   40       1
    43   15   41       1
    44   15   42       1
    45   16   43       1
    46   16   44       1
    47   17   45       1
    48   17   46       1
    49   18   47       1
    50   19   48       1
    51   21   49       1
    52   21   50       1
    53   21   51       1
    54   22   52       1
    55   23   53       1
    56   25   54       1
    57    2   55       1
@<TRIPOS>SUBSTRUCTURE
     1 QEM396      1 GROUP             4 B     QEM     0 **** QEM B 396
