@<TRIPOS>MOLECULE
3gvi_ADP_3_ligand
   39    41     1     0     0
SMALL
NO_CHARGES


@<TRIPOS>ATOM
     1 PB           4.2220    66.2290    27.0820 P.3          1 ADP401   0.0000
     2 O1B          3.4840    65.4760    25.9750 O.co2        1 ADP401   0.0000
     3 O2B          3.8060    65.8250    28.4460 O.co2        1 ADP401  -1.0000
     4 O3B          5.7340    66.2760    26.9540 O.co2        1 ADP401  -1.0000
     5 PA           4.4070    69.1770    26.7970 P.3          1 ADP401   0.0000
     6 O1A          5.3160    69.3400    27.9800 O.co2        1 ADP401   0.0000
     7 O2A          3.2790    70.1370    26.5480 O.co2        1 ADP401  -1.0000
     8 O3A          3.6440    67.7390    26.8320 O.3          1 ADP401   0.0000
     9 O5'          5.2820    69.1140    25.4830 O.3          1 ADP401   0.0000
    10 C5'          4.6690    69.1780    24.1980 C.3          1 ADP401   0.0000
    11 C4'          5.7130    69.7030    23.2220 C.3          1 ADP401   0.0000
    12 O4'          5.1790    69.7180    21.8860 O.3          1 ADP401   0.0000
    13 C3'          6.1510    71.1300    23.5800 C.3          1 ADP401   0.0000
    14 O3'          7.5940    71.2300    23.6820 O.3          1 ADP401   0.0000
    15 C2'          5.6060    71.9530    22.4340 C.3          1 ADP401   0.0000
    16 O2'          6.4060    73.1020    22.1370 O.3          1 ADP401   0.0000
    17 C1'          5.6250    70.9360    21.3050 C.3          1 ADP401   0.0000
    18 N9           4.8270    71.2840    20.1150 N.pl3        1 ADP401   0.0000
    19 C8           3.6050    71.8410    20.0390 C.2          1 ADP401   0.0000
    20 N7           3.2340    71.9830    18.7300 N.2          1 ADP401   0.0000
    21 C5           4.2420    71.4650    17.9820 C.ar         1 ADP401   0.0000
    22 C6           4.5360    71.3010    16.5480 C.ar         1 ADP401   0.0000
    23 N6           3.6060    71.7080    15.6450 N.pl3        1 ADP401   0.0000
    24 N1           5.7180    70.7310    16.1870 N.ar         1 ADP401   0.0000
    25 C2           6.6200    70.3350    17.1140 C.ar         1 ADP401   0.0000
    26 N3           6.4210    70.4760    18.4330 N.ar         1 ADP401   0.0000
    27 C4           5.2790    71.0130    18.9020 C.ar         1 ADP401   0.0000
    28 H5'1         3.8837    69.7966    24.2242 H            1 ADP401   0.0000
    29 H5'2         4.3665    68.2670    23.9177 H            1 ADP401   0.0000
    30 H4'          6.5119    69.1020    23.2461 H            1 ADP401   0.0000
    31 H3'          5.7257    71.4142    24.4393 H            1 ADP401   0.0000
    32 H5           8.0081    70.9810    22.8065 H            1 ADP401   0.0000
    33 H2'          4.6655    72.2313    22.6288 H            1 ADP401   0.0000
    34 H7           7.1001    72.8588    21.4595 H            1 ADP401   0.0000
    35 H1'          6.5742    70.8119    21.0159 H            1 ADP401   0.0000
    36 H9           3.0489    72.1118    20.8248 H            1 ADP401   0.0000
    37 H10          3.7822    71.6072    14.6658 H            1 ADP401   0.0000
    38 H11          2.7453    72.1083    15.9596 H            1 ADP401   0.0000
    39 H12          7.4738    69.9183    16.8019 H            1 ADP401   0.0000
@<TRIPOS>BOND
     1    1    2      ar
     2    1    3      ar
     3    1    4      ar
     4    1    8       1
     5    5    6      ar
     6    5    7      ar
     7    5    8       1
     8    5    9       1
     9    9   10       1
    10   10   11       1
    11   11   12       1
    12   11   13       1
    13   12   17       1
    14   13   14       1
    15   13   15       1
    16   15   16       1
    17   15   17       1
    18   17   18       1
    19   18   19       1
    20   18   27       1
    21   19   20       2
    22   20   21       1
    23   21   22      ar
    24   21   27      ar
    25   22   23       1
    26   22   24      ar
    27   24   25      ar
    28   25   26      ar
    29   26   27      ar
    30   25   39       1
    31   23   38       1
    32   23   37       1
    33   10   28       1
    34   10   29       1
    35   11   30       1
    36   13   31       1
    37   14   32       1
    38   15   33       1
    39   16   34       1
    40   17   35       1
    41   19   36       1
@<TRIPOS>SUBSTRUCTURE
     1 ADP401      1 GROUP             4 C     ADP     0 **** ADP C 401
