@<TRIPOS>MOLECULE
4w6z_8ID_2_ligand
   70    74     1     0     0
SMALL
NO_CHARGES


@<TRIPOS>ATOM
     1 O7N         84.4360   -10.2170   -14.5380 O.2          1 8ID403   0.0000
     2 C7N         83.8390   -10.6530   -15.5300 C.2          1 8ID403   0.0000
     3 N7N         82.8300   -10.0570   -16.1630 N.am         1 8ID403   0.0000
     4 C3N         84.2360   -11.9670   -15.9850 C.ar         1 8ID403   0.0000
     5 C4N         84.9230   -12.7820   -15.0980 C.ar         1 8ID403   0.0000
     6 C5N         85.2970   -14.0160   -15.5660 C.ar         1 8ID403   0.0000
     7 C6N         84.9340   -14.4090   -16.8540 C.ar         1 8ID403   0.0000
     8 C2N         83.9370   -12.3900   -17.2660 C.ar         1 8ID403   0.0000
     9 N1N         84.2990   -13.5980   -17.6750 N.ar         1 8ID403   1.0000
    10 C1'         83.8470   -14.0100   -19.0000 C.3          1 8ID403   0.0000
    11 C2'         84.7310   -14.7520   -19.9380 C.3          1 8ID403   0.0000
    12 O2'         85.5440   -13.7750   -20.5970 O.3          1 8ID403   0.0000
    13 C3'         83.7040   -15.4590   -20.8150 C.3          1 8ID403   0.0000
    14 O3'         83.2040   -14.6840   -21.9640 O.3          1 8ID403   0.0000
    15 O4'         82.7500   -14.8980   -18.7430 O.3          1 8ID403   0.0000
    16 C4'         82.5560   -15.7590   -19.8630 C.3          1 8ID403   0.0000
    17 C5'         82.4590   -17.2280   -19.4510 C.3          1 8ID403   0.0000
    18 O5'         83.6810   -17.7190   -18.9260 O.3          1 8ID403   0.0000
    19 PN          83.7570   -19.2730   -18.5050 P.3          1 8ID403   0.0000
    20 O1N         82.5690   -19.5320   -17.6040 O.co2        1 8ID403   0.0000
    21 O2N         85.1690   -19.5140   -18.1360 O.co2        1 8ID403  -1.0000
    22 OPP         83.4950   -20.0580   -19.8970 O.3          1 8ID403   0.0000
    23 PA          83.1360   -21.6010   -20.1500 P.3          1 8ID403   0.0000
    24 O1A         83.9980   -22.3500   -19.1930 O.co2        1 8ID403   0.0000
    25 O2A         83.2870   -21.7360   -21.7090 O.co2        1 8ID403  -1.0000
    26 O5B         81.5920   -21.8850   -19.9900 O.3          1 8ID403   0.0000
    27 C5B         80.7360   -20.9450   -20.6260 C.3          1 8ID403   0.0000
    28 C4B         79.3900   -21.5760   -20.7760 C.3          1 8ID403   0.0000
    29 O4B         78.5920   -20.9060   -21.7620 O.3          1 8ID403   0.0000
    30 C1B         77.5630   -21.8440   -22.0150 C.3          1 8ID403   0.0000
    31 C2B         78.4550   -23.0140   -22.3640 C.3          1 8ID403   0.0000
    32 O2B         77.7690   -24.2580   -22.5740 O.3          1 8ID403   0.0000
    33 C3B         79.4520   -23.0210   -21.2120 C.3          1 8ID403   0.0000
    34 O3B         79.0450   -23.9340   -20.1680 O.3          1 8ID403   0.0000
    35 N9A         76.6740   -21.3820   -23.0750 N.pl3        1 8ID403   0.0000
    36 C8A         76.9310   -21.0730   -24.3910 C.2          1 8ID403   0.0000
    37 I8A         78.8370   -21.0320   -25.2850 I            1 8ID403   0.0000
    38 N7A         75.9220   -20.6360   -25.1420 N.2          1 8ID403   0.0000
    39 C5A         74.8750   -20.7060   -24.2880 C.ar         1 8ID403   0.0000
    40 C6A         73.4560   -20.4240   -24.4110 C.ar         1 8ID403   0.0000
    41 N6A         72.9610   -19.9860   -25.6040 N.pl3        1 8ID403   0.0000
    42 C4A         75.3530   -21.1790   -22.9480 C.ar         1 8ID403   0.0000
    43 N3A         74.4830   -21.2920   -21.9410 N.ar         1 8ID403   0.0000
    44 C2A         73.1950   -21.0260   -22.1250 C.ar         1 8ID403   0.0000
    45 N1A         72.7020   -20.6050   -23.2970 N.ar         1 8ID403   0.0000
    46 H7N1        82.4122   -10.4933   -16.9599 H            1 8ID403   0.0000
    47 H7N2        82.4902    -9.1732   -15.8413 H            1 8ID403   0.0000
    48 H4N         85.1345   -12.4858   -14.1666 H            1 8ID403   0.0000
    49 H5N         85.8286   -14.6323   -14.9851 H            1 8ID403   0.0000
    50 H6N         85.1622   -15.3323   -17.1628 H            1 8ID403   0.0000
    51 H2N         83.4447   -11.7814   -17.8882 H            1 8ID403   0.0000
    52 H1'         83.4930   -13.2042   -19.4747 H            1 8ID403   0.0000
    53 H2'         85.2968   -15.4142   -19.4466 H            1 8ID403   0.0000
    54 H9          85.3088   -12.8634   -20.2598 H            1 8ID403   0.0000
    55 H3'         84.0910   -16.3204   -21.1439 H            1 8ID403   0.0000
    56 H11         82.2663   -14.9627   -22.1713 H            1 8ID403   0.0000
    57 H4'         81.7004   -15.5018   -20.3122 H            1 8ID403   0.0000
    58 H5'1        82.2115   -17.7717   -20.2530 H            1 8ID403   0.0000
    59 H5'2        81.7485   -17.3205   -18.7534 H            1 8ID403   0.0000
    60 H5B1        81.1017   -20.7072   -21.5258 H            1 8ID403   0.0000
    61 H5B2        80.6635   -20.1191   -20.0668 H            1 8ID403   0.0000
    62 H4B         78.9161   -21.5286   -19.8967 H            1 8ID403   0.0000
    63 H1B         77.0462   -22.0327   -21.1800 H            1 8ID403   0.0000
    64 H2B         78.9507   -22.7873   -23.2024 H            1 8ID403   0.0000
    65 H20         76.9419   -24.2815   -22.0125 H            1 8ID403   0.0000
    66 H3B         80.3681   -23.2497   -21.5414 H            1 8ID403   0.0000
    67 H22         78.1027   -23.7344   -19.8993 H            1 8ID403   0.0000
    68 H6A1        71.9851   -19.7892   -25.6984 H            1 8ID403   0.0000
    69 H6A2        73.5739   -19.8617   -26.3843 H            1 8ID403   0.0000
    70 H2A         72.5668   -21.1450   -21.3561 H            1 8ID403   0.0000
@<TRIPOS>BOND
     1    1    2       2
     2    2    3      am
     3    2    4       1
     4    4    5      ar
     5    4    8      ar
     6    5    6      ar
     7    6    7      ar
     8    7    9      ar
     9    8    9      ar
    10    9   10       1
    11   10   11       1
    12   10   15       1
    13   11   12       1
    14   11   13       1
    15   13   14       1
    16   13   16       1
    17   15   16       1
    18   16   17       1
    19   17   18       1
    20   18   19       1
    21   19   20      ar
    22   19   21      ar
    23   19   22       1
    24   22   23       1
    25   23   24      ar
    26   23   25      ar
    27   23   26       1
    28   26   27       1
    29   27   28       1
    30   28   29       1
    31   28   33       1
    32   29   30       1
    33   30   31       1
    34   30   35       1
    35   31   32       1
    36   31   33       1
    37   33   34       1
    38   35   36       1
    39   35   42       1
    40   36   37       1
    41   36   38       2
    42   38   39       1
    43   39   40      ar
    44   39   42      ar
    45   40   41       1
    46   40   45      ar
    47   42   43      ar
    48   43   44      ar
    49   44   45      ar
    50    3   46       1
    51    3   47       1
    52    5   48       1
    53    6   49       1
    54    7   50       1
    55    8   51       1
    56   10   52       1
    57   11   53       1
    58   12   54       1
    59   13   55       1
    60   14   56       1
    61   16   57       1
    62   17   58       1
    63   17   59       1
    64   44   70       1
    65   41   69       1
    66   27   60       1
    67   27   61       1
    68   28   62       1
    69   30   63       1
    70   31   64       1
    71   32   65       1
    72   33   66       1
    73   34   67       1
    74   41   68       1
@<TRIPOS>SUBSTRUCTURE
     1 8ID403      1 GROUP             4 C     8ID     0 **** 8ID C 403
