@<TRIPOS>MOLECULE
4kp6_1S1_1_ligand
   38    39     1     0     0
SMALL
NO_CHARGES


@<TRIPOS>ATOM
     1 C3         -41.4990    90.8870   116.2040 C.ar         1 1S1501   0.0000
     2 C4         -39.8600    90.7430   114.5090 C.ar         1 1S1501   0.0000
     3 C7         -39.4460    89.8180   116.6260 C.ar         1 1S1501   0.0000
     4 N10        -39.3330    92.1900   111.3240 N.2          1 1S1501   0.0000
     5 C12        -38.2970    91.3500   111.4970 C.2          1 1S1501   0.0000
     6 N13        -38.6050    89.1440   117.4750 N.pl3        1 1S1501   0.0000
     7 C15        -43.8180    91.8010   115.6670 C.3          1 1S1501   0.0000
     8 C16        -44.9770    92.2720   116.5630 C.3          1 1S1501   0.0000
     9 C17        -46.2140    92.8050   115.8420 C.3          1 1S1501   0.0000
    10 C18        -44.2400    90.6890   114.6660 C.3          1 1S1501   0.0000
    11 C19        -44.8020    89.4560   115.3860 C.3          1 1S1501   0.0000
    12 N21        -42.9900    93.8260   114.2230 N.1          1 1S1501   0.0000
    13 C20        -43.3560    92.9370   114.8660 C.1          1 1S1501   0.0000
    14 N1         -42.7650    91.2970   116.5760 N.pl3        1 1S1501   0.0000
    15 N5         -40.6650    90.2570   117.0710 N.ar         1 1S1501   0.0000
    16 C14        -37.3070    88.6180   117.0570 C.3          1 1S1501   0.0000
    17 N6         -39.0160    90.1050   115.3590 N.ar         1 1S1501   0.0000
    18 N2         -41.0900    91.1610   114.9320 N.ar         1 1S1501   0.0000
    19 N8         -39.4210    91.1000   113.1860 N.pl3        1 1S1501   0.0000
    20 N11        -38.3610    90.7110   112.6460 N.2          1 1S1501   0.0000
    21 C9         -40.0440    92.0300   112.4420 C.2          1 1S1501   0.0000
    22 H1         -37.5627    91.2253   110.8297 H            1 1S1501   0.0000
    23 H2         -38.8931    89.0064   118.4227 H            1 1S1501   0.0000
    24 H3         -44.6298    93.0012   117.1526 H            1 1S1501   0.0000
    25 H4         -45.2625    91.4960   117.1255 H            1 1S1501   0.0000
    26 H5         -46.8995    93.0810   116.5158 H            1 1S1501   0.0000
    27 H6         -45.9597    93.5940   115.2828 H            1 1S1501   0.0000
    28 H7         -46.5924    92.0889   115.2556 H            1 1S1501   0.0000
    29 H8         -43.4408    90.4150   114.1311 H            1 1S1501   0.0000
    30 H9         -44.9416    91.0540   114.0539 H            1 1S1501   0.0000
    31 H10        -45.0614    88.7653   114.7110 H            1 1S1501   0.0000
    32 H11        -44.1050    89.0801   115.9967 H            1 1S1501   0.0000
    33 H12        -45.6058    89.7191   115.9195 H            1 1S1501   0.0000
    34 H13        -42.9902    91.2486   117.5491 H            1 1S1501   0.0000
    35 H14        -36.8652    88.1661   117.8320 H            1 1S1501   0.0000
    36 H15        -37.4373    87.9586   116.3166 H            1 1S1501   0.0000
    37 H16        -36.7304    89.3695   116.7364 H            1 1S1501   0.0000
    38 H17        -40.8858    92.5134   112.6821 H            1 1S1501   0.0000
@<TRIPOS>BOND
     1    1   14       1
     2    1   15      ar
     3    1   18      ar
     4    2   17      ar
     5    2   18      ar
     6    2   19       1
     7    3    6       1
     8    3   15      ar
     9    3   17      ar
    10    4    5       1
    11    4   21       2
    12    5   20       2
    13    6   16       1
    14    7    8       1
    15    7   10       1
    16    7   13       1
    17    7   14       1
    18    8    9       1
    19   10   11       1
    20   12   13       3
    21   19   20       1
    22   19   21       1
    23    5   22       1
    24    6   23       1
    25    8   24       1
    26    8   25       1
    27    9   26       1
    28    9   27       1
    29    9   28       1
    30   10   29       1
    31   10   30       1
    32   11   31       1
    33   11   32       1
    34   11   33       1
    35   14   34       1
    36   16   35       1
    37   16   36       1
    38   16   37       1
    39   21   38       1
@<TRIPOS>SUBSTRUCTURE
     1 1S1501      1 GROUP             4 A     1S1     0 **** 1S1 A 501
