@<TRIPOS>MOLECULE
1x0p_FAD_3_ligand
   47    49     1     0     0
SMALL
NO_CHARGES


@<TRIPOS>ATOM
     1 N1          53.6370    42.0990    63.7360 N.2          1 FAD9152   0.0000
     2 C2          54.9450    42.1920    64.1800 C.2          1 FAD9152   0.0000
     3 O2          55.8610    42.4240    63.4060 O.2          1 FAD9152   0.0000
     4 N3          55.1070    42.0030    65.5940 N.pl3        1 FAD9152   0.0000
     5 C4          54.0710    41.7340    66.5430 C.2          1 FAD9152   0.0000
     6 O4          54.3610    41.5810    67.7560 O.2          1 FAD9152   0.0000
     7 C4X         52.7380    41.6670    65.9350 C.2          1 FAD9152   0.0000
     8 N5          51.6700    41.4140    66.8310 N.2          1 FAD9152   0.0000
     9 C5X         50.3700    41.3600    66.2990 C.ar         1 FAD9152   0.0000
    10 C6          49.3210    41.1290    67.1730 C.ar         1 FAD9152   0.0000
    11 C7          48.0130    41.0780    66.6960 C.ar         1 FAD9152   0.0000
    12 C7M         46.8420    40.8290    67.6710 C.3          1 FAD9152   0.0000
    13 C8          47.7500    41.2670    65.2670 C.ar         1 FAD9152   0.0000
    14 C8M         46.3160    41.2200    64.7440 C.3          1 FAD9152   0.0000
    15 C9          48.8040    41.4930    64.3880 C.ar         1 FAD9152   0.0000
    16 C9A         50.1270    41.5470    64.8700 C.ar         1 FAD9152   0.0000
    17 N10         51.2200    41.7870    63.9850 N.pl3        1 FAD9152   0.0000
    18 C10         52.5000    41.8510    64.5040 C.2          1 FAD9152   0.0000
    19 C1'         51.0420    41.9720    62.5520 C.3          1 FAD9152   0.0000
    20 C2'         51.1350    43.1680    61.7980 C.3          1 FAD9152   0.0000
    21 O2'         49.8390    43.8190    61.9260 O.3          1 FAD9152   0.0000
    22 C3'         51.6970    42.8930    60.4390 C.3          1 FAD9152   0.0000
    23 O3'         50.7640    42.2070    59.6470 O.3          1 FAD9152   0.0000
    24 C4'         53.1980    42.4150    60.2020 C.3          1 FAD9152   0.0000
    25 O4'         54.0810    43.2280    61.0880 O.3          1 FAD9152   0.0000
    26 C5'         53.7260    42.6100    58.7420 C.3          1 FAD9152   0.0000
    27 O5'         55.0530    42.2600    58.1900 O.3          1 FAD9152   0.0000
    28 H1          56.0387    42.0658    65.9518 H            1 FAD9152   0.0000
    29 H2          49.5026    40.9986    68.1477 H            1 FAD9152   0.0000
    30 H7M1        45.9807    40.8235    67.1630 H            1 FAD9152   0.0000
    31 H7M2        46.9674    39.9464    68.1240 H            1 FAD9152   0.0000
    32 H7M3        46.8195    41.5558    68.3575 H            1 FAD9152   0.0000
    33 H8M1        46.3170    41.3667    63.7548 H            1 FAD9152   0.0000
    34 H8M2        45.9159    40.3265    64.9481 H            1 FAD9152   0.0000
    35 H8M3        45.7761    41.9360    65.1866 H            1 FAD9152   0.0000
    36 H9          48.6226    41.6174    63.4125 H            1 FAD9152   0.0000
    37 H1'1        50.1203    41.6306    62.3678 H            1 FAD9152   0.0000
    38 H1'2        51.7138    41.3599    62.1349 H            1 FAD9152   0.0000
    39 H2'         51.7964    43.7522    62.2684 H            1 FAD9152   0.0000
    40 H13         49.1266    43.2171    61.5653 H            1 FAD9152   0.0000
    41 H3'         51.6976    43.8026    60.0234 H            1 FAD9152   0.0000
    42 H15         51.1573    42.0326    58.7443 H            1 FAD9152   0.0000
    43 H4'         53.2788    41.4507    60.4540 H            1 FAD9152   0.0000
    44 H17         53.8181    43.0853    62.0422 H            1 FAD9152   0.0000
    45 H5'1        53.6332    43.5908    58.5702 H            1 FAD9152   0.0000
    46 H5'2        53.0761    42.1086    58.1708 H            1 FAD9152   0.0000
    47 H5'         54.9411    41.6035    57.4440 H            1 FAD9152   0.0000
@<TRIPOS>BOND
     1    1    2       1
     2    1   18       2
     3    2    3       2
     4    2    4       1
     5    4    5       1
     6    5    6       2
     7    5    7       1
     8    7    8       2
     9    7   18       1
    10    8    9       1
    11    9   10      ar
    12    9   16      ar
    13   10   11      ar
    14   11   12       1
    15   11   13      ar
    16   13   14       1
    17   13   15      ar
    18   15   16      ar
    19   16   17       1
    20   17   18       1
    21   17   19       1
    22   19   20       1
    23   20   21       1
    24   20   22       1
    25   22   23       1
    26   22   24       1
    27   24   25       1
    28   24   26       1
    29   26   27       1
    30    4   28       1
    31   10   29       1
    32   12   30       1
    33   12   31       1
    34   12   32       1
    35   14   33       1
    36   14   34       1
    37   14   35       1
    38   15   36       1
    39   19   37       1
    40   19   38       1
    41   20   39       1
    42   21   40       1
    43   22   41       1
    44   23   42       1
    45   24   43       1
    46   25   44       1
    47   26   45       1
    48   26   46       1
    49   27   47       1
@<TRIPOS>SUBSTRUCTURE
     1 FAD9152     1 GROUP             4 C     FAD     0 **** FAD C9152
