@<TRIPOS>MOLECULE
4lol_1YE_1_ligand
   34    36     1     0     0
SMALL
NO_CHARGES


@<TRIPOS>ATOM
     1 OAD         23.1110   -30.8760   -10.6410 O.2          1 1YE401   0.0000
     2 CAQ         22.1300   -30.2280   -11.0450 C.2          1 1YE401   0.0000
     3 CAS         21.2720   -29.5080   -10.2110 C.ar         1 1YE401   0.0000
     4 CAJ         21.5440   -29.3770    -8.8630 C.ar         1 1YE401   0.0000
     5 CAH         20.6730   -28.6330    -8.0800 C.ar         1 1YE401   0.0000
     6 CAN         19.5240   -28.0330    -8.5890 C.ar         1 1YE401   0.0000
     7 CAA         18.7060   -27.2870    -7.6810 C.3          1 1YE401   0.0000
     8 CAO         19.2460   -28.1470    -9.9590 C.ar         1 1YE401   0.0000
     9 CAB         18.1100   -27.5780   -10.5740 C.3          1 1YE401   0.0000
    10 CAT         20.1230   -28.8750   -10.7180 C.ar         1 1YE401   0.0000
    11 OAL         19.7800   -28.9590   -12.0050 O.2          1 1YE401   0.0000
    12 CAU         20.6480   -29.5490   -12.8470 C.ar         1 1YE401   0.0000
    13 CAR         21.8200   -30.1760   -12.3910 C.ar         1 1YE401   0.0000
    14 CAI         22.6710   -30.7730   -13.2930 C.ar         1 1YE401   0.0000
    15 CAF         22.3480   -30.7360   -14.6200 C.ar         1 1YE401   0.0000
    16 CAG         21.1880   -30.0940   -15.0450 C.ar         1 1YE401   0.0000
    17 CAP         20.3200   -29.4760   -14.1750 C.ar         1 1YE401   0.0000
    18 CAK         19.1550   -28.8370   -14.6250 C.3          1 1YE401   0.0000
    19 CAM         19.0900   -27.3080   -14.2660 C.2          1 1YE401   0.0000
    20 OAE         20.1160   -26.6510   -14.0180 O.co2        1 1YE401   0.0000
    21 OAC         17.9630   -26.7880   -14.2440 O.co2        1 1YE401  -1.0000
    22 HAJ         22.3510   -29.8089    -8.4603 H            1 1YE401   0.0000
    23 HAH         20.8794   -28.5228    -7.1077 H            1 1YE401   0.0000
    24 HAA1        17.9196   -26.9121    -8.1719 H            1 1YE401   0.0000
    25 HAA2        18.3862   -27.8887    -6.9491 H            1 1YE401   0.0000
    26 HAA3        19.2410   -26.5392    -7.2878 H            1 1YE401   0.0000
    27 HAB1        18.1203   -27.7874   -11.5518 H            1 1YE401   0.0000
    28 HAB2        17.2821   -27.9571   -10.1606 H            1 1YE401   0.0000
    29 HAB3        18.1228   -26.5864   -10.4453 H            1 1YE401   0.0000
    30 HAI         23.5080   -31.2243   -12.9836 H            1 1YE401   0.0000
    31 HAF         22.9483   -31.1726   -15.2900 H            1 1YE401   0.0000
    32 HAG         20.9773   -30.0816   -16.0225 H            1 1YE401   0.0000
    33 HAK1        18.3663   -29.2917   -14.2112 H            1 1YE401   0.0000
    34 HAK2        19.1090   -28.9294   -15.6197 H            1 1YE401   0.0000
@<TRIPOS>BOND
     1    1    2       2
     2    2    3       1
     3    2   13       1
     4    3    4      ar
     5    3   10      ar
     6    4    5      ar
     7    5    6      ar
     8    6    7       1
     9    6    8      ar
    10    8    9       1
    11    8   10      ar
    12   10   11       1
    13   11   12       1
    14   12   13      ar
    15   12   17      ar
    16   13   14      ar
    17   14   15      ar
    18   15   16      ar
    19   16   17      ar
    20   17   18       1
    21   18   19       1
    22   19   20      ar
    23   19   21      ar
    24    4   22       1
    25    5   23       1
    26    7   24       1
    27    7   25       1
    28    7   26       1
    29    9   27       1
    30    9   28       1
    31    9   29       1
    32   14   30       1
    33   15   31       1
    34   16   32       1
    35   18   33       1
    36   18   34       1
@<TRIPOS>SUBSTRUCTURE
     1 1YE401      1 GROUP             4 A     1YE     0 **** 1YE A 401
