@<TRIPOS>MOLECULE
4aua_4AU_1_ligand
   25    27     1     0     0
SMALL
NO_CHARGES


@<TRIPOS>ATOM
     1 C1          19.7440    36.7150   -11.4760 C.ar         1 4AU1302   0.0000
     2 C2          20.4400    36.6030   -10.2840 C.ar         1 4AU1302   0.0000
     3 C3          21.4400    35.6510   -10.1810 C.ar         1 4AU1302   0.0000
     4 C4          21.7230    34.8270   -11.2590 C.ar         1 4AU1302   0.0000
     5 C5          21.0180    34.9280   -12.4450 C.ar         1 4AU1302   0.0000
     6 C6          20.0240    35.8810   -12.5420 C.ar         1 4AU1302   0.0000
     7 C8          23.0510    34.3110    -9.5830 C.2          1 4AU1302   0.0000
     8 N17         22.2870    35.3350    -9.1040 N.2          1 4AU1302   0.0000
     9 C10         24.1190    33.6000    -8.8790 C.2          1 4AU1302   0.0000
    10 C11         24.4020    33.9030    -7.4640 C.2          1 4AU1302   0.0000
    11 C12         23.7880    34.7400    -6.5310 C.2          1 4AU1302   0.0000
    12 C13         24.4830    34.6160    -5.3330 C.2          1 4AU1302   0.0000
    13 C14         25.5190    33.7020    -5.5510 C.2          1 4AU1302   0.0000
    14 N7          25.4550    33.2800    -6.8380 N.pl3        1 4AU1302   0.0000
    15 N9          22.7300    33.9910   -10.8730 N.pl3        1 4AU1302   0.0000
    16 O16         24.7450    32.7690    -9.4960 O.2          1 4AU1302   0.0000
    17 H1          19.0293    37.4085   -11.5667 H            1 4AU1302   0.0000
    18 H2          20.2240    37.1995    -9.5110 H            1 4AU1302   0.0000
    19 H3          21.2239    34.3240   -13.2150 H            1 4AU1302   0.0000
    20 H4          19.5022    35.9687   -13.3906 H            1 4AU1302   0.0000
    21 H5          22.9923    35.3233    -6.6945 H            1 4AU1302   0.0000
    22 H6          24.2802    35.0910    -4.4767 H            1 4AU1302   0.0000
    23 H7          26.1928    33.4093    -4.8726 H            1 4AU1302   0.0000
    24 H8          26.0749    32.6208    -7.2636 H            1 4AU1302   0.0000
    25 H9          23.1543    33.2771   -11.4300 H            1 4AU1302   0.0000
@<TRIPOS>BOND
     1    1    2      ar
     2    1    6      ar
     3    2    3      ar
     4    3    4      ar
     5    3    8       1
     6    4    5      ar
     7    4   15       1
     8    5    6      ar
     9    7    8       2
    10    7    9       1
    11    7   15       1
    12    9   10       1
    13    9   16       2
    14   10   11       2
    15   10   14       1
    16   11   12       1
    17   12   13       2
    18   13   14       1
    19    1   17       1
    20    2   18       1
    21    5   19       1
    22    6   20       1
    23   11   21       1
    24   12   22       1
    25   13   23       1
    26   14   24       1
    27   15   25       1
@<TRIPOS>SUBSTRUCTURE
     1 4AU1302     1 GROUP             4 A     4AU     0 **** 4AU A1302
