@<TRIPOS>MOLECULE
4dd8_BAT_4_ligand
   62    63     1     0     0
SMALL
NO_CHARGES


@<TRIPOS>ATOM
     1 C1          41.1110    -8.2850    12.4160 C.3          1 BAT1000   0.0000
     2 C2          41.9600    -7.2450    11.7460 C.2          1 BAT1000   0.0000
     3 C3          39.7050    -7.7370    12.5190 C.3          1 BAT1000   0.0000
     4 C4          38.2480    -5.8490    14.0580 C.2          1 BAT1000   0.0000
     5 C5          37.4340    -4.7780    13.7500 C.2          1 BAT1000   0.0000
     6 C6          36.2050    -4.7890    14.4580 C.2          1 BAT1000   0.0000
     7 C7          36.1050    -5.8690    15.3030 C.2          1 BAT1000   0.0000
     8 C8          41.1350    -9.5360    11.5610 C.3          1 BAT1000   0.0000
     9 C9          42.5440   -10.0790    11.5350 C.3          1 BAT1000   0.0000
    10 C10         42.6130   -11.2910    10.6420 C.3          1 BAT1000   0.0000
    11 C11         42.1570   -10.9270     9.2510 C.3          1 BAT1000   0.0000
    12 C12         44.0320   -11.7920    10.5950 C.3          1 BAT1000   0.0000
    13 C13         40.2630   -10.5620    12.2210 C.2          1 BAT1000   0.0000
    14 C14         38.2610   -11.9070    11.8970 C.3          1 BAT1000   0.0000
    15 C15         38.8060   -13.2110    11.4210 C.2          1 BAT1000   0.0000
    16 C16         39.3650   -15.4470    12.1900 C.3          1 BAT1000   0.0000
    17 C17         36.9330   -11.7170    11.2130 C.3          1 BAT1000   0.0000
    18 C18         36.4350   -10.3620    11.5410 C.ar         1 BAT1000   0.0000
    19 C19         36.2760    -9.4310    10.5440 C.ar         1 BAT1000   0.0000
    20 C20         35.8160    -8.1730    10.8480 C.ar         1 BAT1000   0.0000
    21 C21         35.5190    -7.8460    12.1490 C.ar         1 BAT1000   0.0000
    22 C22         35.6800    -8.7780    13.1460 C.ar         1 BAT1000   0.0000
    23 C23         36.1370   -10.0360    12.8420 C.ar         1 BAT1000   0.0000
    24 N1          43.1860    -7.0780    12.4000 N.am         1 BAT1000   0.0000
    25 N2          39.2100   -10.9330    11.4190 N.am         1 BAT1000   0.0000
    26 N3          38.8700   -14.1230    12.4430 N.am         1 BAT1000   0.0000
    27 O1          41.6030    -6.6240    10.7570 O.2          1 BAT1000   0.0000
    28 O2          44.1170    -6.3110    11.7020 O.3          1 BAT1000  -1.0000
    29 O3          40.4890   -11.0030    13.3390 O.2          1 BAT1000   0.0000
    30 O4          39.1270   -13.4130    10.2600 O.2          1 BAT1000   0.0000
    31 S1          39.8200    -6.1650    13.4000 S.3          1 BAT1000   0.0000
    32 S2          37.5020    -6.8600    15.2290 S.3          1 BAT1000   0.0000
    33 H1          41.4692    -8.4854    13.3279 H            1 BAT1000   0.0000
    34 H2          39.1237    -8.3737    13.0257 H            1 BAT1000   0.0000
    35 H3          39.3242    -7.5926    11.6057 H            1 BAT1000   0.0000
    36 H4          37.6852    -4.0662    13.0941 H            1 BAT1000   0.0000
    37 H5          35.4946    -4.0929    14.3547 H            1 BAT1000   0.0000
    38 H6          35.3154    -6.0536    15.8882 H            1 BAT1000   0.0000
    39 H7          40.8132    -9.3393    10.6349 H            1 BAT1000   0.0000
    40 H8          42.8174   -10.3349    12.4622 H            1 BAT1000   0.0000
    41 H9          43.1636    -9.3755    11.1869 H            1 BAT1000   0.0000
    42 H10         42.0199   -12.0077    11.0088 H            1 BAT1000   0.0000
    43 H11         42.2046   -11.7342     8.6627 H            1 BAT1000   0.0000
    44 H12         41.2144   -10.5948     9.2855 H            1 BAT1000   0.0000
    45 H13         42.7496   -10.2107     8.8827 H            1 BAT1000   0.0000
    46 H14         44.0820   -12.5965    10.0032 H            1 BAT1000   0.0000
    47 H15         44.6270   -11.0744    10.2330 H            1 BAT1000   0.0000
    48 H16         44.3294   -12.0378    11.5176 H            1 BAT1000   0.0000
    49 H17         38.1729   -11.8824    12.8928 H            1 BAT1000   0.0000
    50 H18         39.3440   -15.9782    13.0370 H            1 BAT1000   0.0000
    51 H19         38.7905   -15.8920    11.5031 H            1 BAT1000   0.0000
    52 H20         40.3052   -15.3928    11.8538 H            1 BAT1000   0.0000
    53 H21         36.2833   -12.4044    11.5376 H            1 BAT1000   0.0000
    54 H22         37.0459   -11.8061    10.2234 H            1 BAT1000   0.0000
    55 H23         36.4949    -9.6687     9.5977 H            1 BAT1000   0.0000
    56 H24         35.6973    -7.4951    10.1225 H            1 BAT1000   0.0000
    57 H25         35.1856    -6.9296    12.3705 H            1 BAT1000   0.0000
    58 H26         35.4642    -8.5397    14.0929 H            1 BAT1000   0.0000
    59 H27         36.2530   -10.7149    13.5670 H            1 BAT1000   0.0000
    60 H28         43.3786    -7.4771    13.2965 H            1 BAT1000   0.0000
    61 H29         39.1031   -10.5299    10.5101 H            1 BAT1000   0.0000
    62 H30         38.5726   -13.8666    13.3627 H            1 BAT1000   0.0000
@<TRIPOS>BOND
     1    1    2       1
     2    1    3       1
     3    1    8       1
     4    2   24      am
     5    2   27       2
     6    3   31       1
     7    4    5       2
     8    4   31       1
     9    4   32       1
    10    5    6       1
    11    6    7       2
    12    7   32       1
    13    8    9       1
    14    8   13       1
    15    9   10       1
    16   10   11       1
    17   10   12       1
    18   13   25      am
    19   13   29       2
    20   14   15       1
    21   14   17       1
    22   14   25       1
    23   15   26      am
    24   15   30       2
    25   16   26       1
    26   17   18       1
    27   18   19      ar
    28   18   23      ar
    29   19   20      ar
    30   20   21      ar
    31   21   22      ar
    32   22   23      ar
    33   24   28       1
    34    1   33       1
    35    3   34       1
    36    3   35       1
    37    5   36       1
    38    6   37       1
    39    7   38       1
    40    8   39       1
    41    9   40       1
    42    9   41       1
    43   10   42       1
    44   11   43       1
    45   11   44       1
    46   11   45       1
    47   12   46       1
    48   12   47       1
    49   12   48       1
    50   14   49       1
    51   16   50       1
    52   16   51       1
    53   16   52       1
    54   17   53       1
    55   17   54       1
    56   19   55       1
    57   20   56       1
    58   21   57       1
    59   22   58       1
    60   23   59       1
    61   24   60       1
    62   25   61       1
    63   26   62       1
@<TRIPOS>SUBSTRUCTURE
     1 BAT1000     1 GROUP             4 D     BAT     0 **** BAT D1000
