@<TRIPOS>MOLECULE
3c4v_LIP_1_ligand
   27    27     1     0     0
SMALL
NO_CHARGES


@<TRIPOS>ATOM
     1 C1          99.5410    43.2520   -11.2770 C.3          1 LIP601   0.0000
     2 C2          98.8110    42.5440   -12.4590 C.3          1 LIP601   0.0000
     3 C3          97.3540    42.1470   -12.0790 C.3          1 LIP601   0.0000
     4 C4          97.3790    41.1790   -10.8710 C.3          1 LIP601   0.0000
     5 C5          98.0710    41.8480    -9.6650 C.3          1 LIP601   0.0000
     6 C6          99.4760    42.4080    -9.9760 C.3          1 LIP601   0.0000
     7 P1         101.9500    44.5660   -10.9780 P.3          1 LIP601   0.0000
     8 O1         100.9190    43.4880   -11.6540 O.3          1 LIP601   0.0000
     9 O2          99.5660    41.3800   -12.8820 O.3          1 LIP601   0.0000
    10 O3          96.6090    41.5990   -13.1950 O.3          1 LIP601   0.0000
    11 O4          96.0600    40.7550   -10.4970 O.3          1 LIP601   0.0000
    12 O5          98.1690    40.9050    -8.5970 O.3          1 LIP601   0.0000
    13 O6          99.8740    43.1910    -8.8550 O.3          1 LIP601   0.0000
    14 O7         103.2200    44.7990   -11.9840 O.co2        1 LIP601   0.0000
    15 O8         102.4510    44.0670    -9.6730 O.co2        1 LIP601  -1.0000
    16 O9         101.1410    45.9930   -10.9060 O.co2        1 LIP601  -1.0000
    17 H1          99.0993    44.1334   -11.1095 H            1 LIP601   0.0000
    18 H2          98.7691    43.1835   -13.2266 H            1 LIP601   0.0000
    19 H3          96.8840    42.9795   -11.7856 H            1 LIP601   0.0000
    20 H4          97.9080    40.3701   -11.1276 H            1 LIP601   0.0000
    21 H5          97.4956    42.6061    -9.3581 H            1 LIP601   0.0000
    22 H6         100.1097    41.6396   -10.0658 H            1 LIP601   0.0000
    23 H7         100.4771    41.6641   -13.1807 H            1 LIP601   0.0000
    24 H8          96.1423    42.3388   -13.6796 H            1 LIP601   0.0000
    25 H9          95.8767    41.0297    -9.5531 H            1 LIP601   0.0000
    26 H10         97.3529    40.9662    -8.0224 H            1 LIP601   0.0000
    27 H11        100.8118    43.5115    -8.9884 H            1 LIP601   0.0000
@<TRIPOS>BOND
     1    1    2       1
     2    1    6       1
     3    1    8       1
     4    2    3       1
     5    2    9       1
     6    3    4       1
     7    3   10       1
     8    4    5       1
     9    4   11       1
    10    5    6       1
    11    5   12       1
    12    6   13       1
    13    7    8       1
    14    7   14      ar
    15    7   15      ar
    16    7   16      ar
    17    1   17       1
    18    2   18       1
    19    3   19       1
    20    4   20       1
    21    5   21       1
    22    6   22       1
    23    9   23       1
    24   10   24       1
    25   11   25       1
    26   12   26       1
    27   13   27       1
@<TRIPOS>SUBSTRUCTURE
     1 LIP601      1 GROUP             4 B     LIP     0 **** LIP B 601
