@<TRIPOS>MOLECULE
1hv9_UD1_2_ligand
   64    66     1     0     0
SMALL
NO_CHARGES


@<TRIPOS>ATOM
     1 C1'         13.2210    24.3170   495.1480 C.3          1 UD13002   0.0000
     2 C2'         13.2750    24.8910   496.5980 C.3          1 UD13002   0.0000
     3 C3'         12.8390    23.7610   497.5740 C.3          1 UD13002   0.0000
     4 C4'         11.4380    23.3220   497.2330 C.3          1 UD13002   0.0000
     5 C5'         11.4360    22.7880   495.7740 C.3          1 UD13002   0.0000
     6 C6'         10.0300    22.3720   495.3740 C.3          1 UD13002   0.0000
     7 C7'         14.9250    26.6480   496.8930 C.2          1 UD13002   0.0000
     8 C8'         16.1730    27.0510   497.5730 C.3          1 UD13002   0.0000
     9 N2'         14.6440    25.3620   496.9220 N.am         1 UD13002   0.0000
    10 O1'         14.1690    23.2180   495.0510 O.3          1 UD13002   0.0000
    11 O3'         12.8790    24.2810   498.9100 O.3          1 UD13002   0.0000
    12 O4'         11.0290    22.2690   498.1110 O.3          1 UD13002   0.0000
    13 O5'         11.9000    23.8360   494.8660 O.3          1 UD13002   0.0000
    14 O6'         10.0040    22.0720   493.9890 O.3          1 UD13002   0.0000
    15 O7'         14.2310    27.4940   496.3520 O.2          1 UD13002   0.0000
    16 N1          15.5670    29.2960   489.4000 N.pl3        1 UD13002   0.0000
    17 C2          15.8940    30.5340   488.8470 C.2          1 UD13002   0.0000
    18 N3          17.1190    30.9980   489.0820 N.pl3        1 UD13002   0.0000
    19 C4          18.0740    30.3930   489.8040 C.2          1 UD13002   0.0000
    20 C5          17.7910    29.0780   490.4130 C.2          1 UD13002   0.0000
    21 C6          16.5710    28.5450   490.2210 C.2          1 UD13002   0.0000
    22 O2          15.1650    31.2380   488.1690 O.2          1 UD13002   0.0000
    23 O4          19.1630    30.9210   489.9470 O.2          1 UD13002   0.0000
    24 C1B         14.2350    28.7170   489.1960 C.3          1 UD13002   0.0000
    25 C2B         14.2130    27.4050   488.3990 C.3          1 UD13002   0.0000
    26 O2'         14.2410    27.7230   487.0120 O.3          1 UD13002   0.0000
    27 C3B         12.9310    26.7090   488.9300 C.3          1 UD13002   0.0000
    28 C4B         12.8620    27.2380   490.3750 C.3          1 UD13002   0.0000
    29 O4B         13.6540    28.4180   490.4350 O.3          1 UD13002   0.0000
    30 O3B         11.8050    27.2230   488.2420 O.3          1 UD13002   0.0000
    31 C5B         13.4620    26.2780   491.4510 C.3          1 UD13002   0.0000
    32 O5B         14.7730    25.7650   491.1480 O.3          1 UD13002   0.0000
    33 PA          15.1590    24.2820   491.3520 P.3          1 UD13002   0.0000
    34 O1A         16.5720    24.1650   490.8660 O.co2        1 UD13002   0.0000
    35 O2A         14.2670    23.4480   490.5570 O.co2        1 UD13002  -1.0000
    36 O3A         15.0120    24.0500   492.8130 O.3          1 UD13002   0.0000
    37 PB          14.7670    22.7790   493.6660 P.3          1 UD13002   0.0000
    38 O1B         16.0250    22.0420   493.8710 O.co2        1 UD13002   0.0000
    39 O2B         13.6910    21.9620   493.0570 O.co2        1 UD13002  -1.0000
    40 H1'         13.4661    25.0321   494.4933 H            1 UD13002   0.0000
    41 H2'         12.6363    25.6567   496.6736 H            1 UD13002   0.0000
    42 H3'         13.4651    22.9853   497.4943 H            1 UD13002   0.0000
    43 H4'         10.8096    24.0957   497.3133 H            1 UD13002   0.0000
    44 H5'         12.0465    21.9987   495.7089 H            1 UD13002   0.0000
    45 H6'1         9.3937    23.1193   495.5655 H            1 UD13002   0.0000
    46 H6'2         9.7603    21.5627   495.8958 H            1 UD13002   0.0000
    47 H8'1        16.2917    28.0407   497.4927 H            1 UD13002   0.0000
    48 H8'2        16.1226    26.7986   498.5393 H            1 UD13002   0.0000
    49 H8'3        16.9495    26.5865   497.1473 H            1 UD13002   0.0000
    50 H11         15.3549    24.7013   497.1630 H            1 UD13002   0.0000
    51 H12         13.8092    24.5793   499.1239 H            1 UD13002   0.0000
    52 H13         10.0379    22.3073   498.2385 H            1 UD13002   0.0000
    53 H6'          9.0793    21.7981   493.7246 H            1 UD13002   0.0000
    54 H15         17.3502    31.8845   488.6811 H            1 UD13002   0.0000
    55 H16         18.4844    28.5988   490.9512 H            1 UD13002   0.0000
    56 H17         16.3369    27.6589   490.6210 H            1 UD13002   0.0000
    57 H1B         13.6616    29.3880   488.7259 H            1 UD13002   0.0000
    58 H2B         15.0151    26.8559   488.6339 H            1 UD13002   0.0000
    59 H20         14.7011    26.9899   486.5112 H            1 UD13002   0.0000
    60 H3B         12.9874    25.7115   488.8866 H            1 UD13002   0.0000
    61 H4B         11.9145    27.4560   490.6090 H            1 UD13002   0.0000
    62 H23         11.9817    28.1702   487.9743 H            1 UD13002   0.0000
    63 H5B1        12.8412    25.5008   491.5536 H            1 UD13002   0.0000
    64 H5B2        13.5168    26.7773   492.3157 H            1 UD13002   0.0000
@<TRIPOS>BOND
     1    1    2       1
     2    1   10       1
     3    1   13       1
     4    2    3       1
     5    2    9       1
     6    3    4       1
     7    3   11       1
     8    4    5       1
     9    4   12       1
    10    5    6       1
    11    5   13       1
    12    6   14       1
    13    7    8       1
    14    7    9      am
    15    7   15       2
    16   10   37       1
    17   16   17       1
    18   16   21       1
    19   16   24       1
    20   17   18       1
    21   17   22       2
    22   18   19       1
    23   19   20       1
    24   19   23       2
    25   20   21       2
    26   24   25       1
    27   24   29       1
    28   25   26       1
    29   25   27       1
    30   27   28       1
    31   27   30       1
    32   28   29       1
    33   28   31       1
    34   31   32       1
    35   32   33       1
    36   33   34      ar
    37   33   35      ar
    38   33   36       1
    39   36   37       1
    40   37   38      ar
    41   37   39      ar
    42    1   40       1
    43    2   41       1
    44    3   42       1
    45    4   43       1
    46    5   44       1
    47    6   45       1
    48    6   46       1
    49    8   47       1
    50    8   48       1
    51    8   49       1
    52    9   50       1
    53   11   51       1
    54   12   52       1
    55   14   53       1
    56   18   54       1
    57   20   55       1
    58   21   56       1
    59   24   57       1
    60   25   58       1
    61   26   59       1
    62   27   60       1
    63   28   61       1
    64   30   62       1
    65   31   63       1
    66   31   64       1
@<TRIPOS>SUBSTRUCTURE
     1 UD13002     1 GROUP             4 B     UD1     0 **** UD1 B3002
