@<TRIPOS>MOLECULE
1t6y_ADP_3_ligand
   39    41     1     0     0
SMALL
NO_CHARGES


@<TRIPOS>ATOM
     1 PB         -13.9250    -9.5870    29.4290 P.3          1 ADP594   0.0000
     2 O1B        -12.7380    -9.5300    30.3150 O.co2        1 ADP594   0.0000
     3 O2B        -14.4580   -11.1010    29.3490 O.co2        1 ADP594  -1.0000
     4 O3B        -14.9970    -8.6760    29.9340 O.co2        1 ADP594  -1.0000
     5 PA         -13.9050    -9.7640    26.4530 P.3          1 ADP594   0.0000
     6 O1A        -14.8670   -10.8620    26.5700 O.co2        1 ADP594   0.0000
     7 O2A        -14.4990    -8.7200    25.6080 O.co2        1 ADP594  -1.0000
     8 O3A        -13.5300    -9.1910    27.9170 O.3          1 ADP594   0.0000
     9 O5'        -12.5710   -10.2700    25.7300 O.3          1 ADP594   0.0000
    10 C5'        -11.2090   -10.2490    26.1930 C.3          1 ADP594   0.0000
    11 C4'        -10.3960   -10.9220    25.0410 C.3          1 ADP594   0.0000
    12 O4'        -10.2070    -9.9840    23.9670 O.3          1 ADP594   0.0000
    13 C3'         -8.9740   -11.4000    25.4330 C.3          1 ADP594   0.0000
    14 O3'         -8.6900   -12.7440    24.9950 O.3          1 ADP594   0.0000
    15 C2'         -8.0130   -10.3680    24.8330 C.3          1 ADP594   0.0000
    16 O2'         -6.6900   -10.8810    24.5700 O.3          1 ADP594   0.0000
    17 C1'         -8.8000    -9.8690    23.6210 C.3          1 ADP594   0.0000
    18 N9          -8.5430    -8.4300    23.2340 N.pl3        1 ADP594   0.0000
    19 C8          -8.3250    -8.0330    21.9610 C.2          1 ADP594   0.0000
    20 N7          -8.1340    -6.7310    21.9210 N.2          1 ADP594   0.0000
    21 C5          -8.2210    -6.2570    23.1390 C.ar         1 ADP594   0.0000
    22 C6          -8.1180    -4.9840    23.7340 C.ar         1 ADP594   0.0000
    23 N6          -7.8700    -3.9130    22.9770 N.pl3        1 ADP594   0.0000
    24 N1          -8.2700    -4.8360    25.1090 N.ar         1 ADP594   0.0000
    25 C2          -8.5240    -5.8990    25.9280 C.ar         1 ADP594   0.0000
    26 N3          -8.6290    -7.1390    25.3630 N.ar         1 ADP594   0.0000
    27 C4          -8.4890    -7.3570    24.0050 C.ar         1 ADP594   0.0000
    28 H5'1       -11.1160   -10.7689    27.0422 H            1 ADP594   0.0000
    29 H5'2       -10.9004    -9.3095    26.3418 H            1 ADP594   0.0000
    30 H4'        -10.9145   -11.7046    24.6965 H            1 ADP594   0.0000
    31 H3'         -8.8922   -11.3675    26.4291 H            1 ADP594   0.0000
    32 H5          -8.2870   -12.7183    24.0802 H            1 ADP594   0.0000
    33 H2'         -7.9284    -9.6106    25.4804 H            1 ADP594   0.0000
    34 H7          -6.2924   -10.3946    23.7920 H            1 ADP594   0.0000
    35 H1'         -8.6054   -10.4593    22.8376 H            1 ADP594   0.0000
    36 H9          -8.3108    -8.6392    21.1658 H            1 ADP594   0.0000
    37 H10         -7.7967    -3.0090    23.3983 H            1 ADP594   0.0000
    38 H11         -7.7575    -4.0146    21.9886 H            1 ADP594   0.0000
    39 H12         -8.6303    -5.7734    26.9144 H            1 ADP594   0.0000
@<TRIPOS>BOND
     1    1    2      ar
     2    1    3      ar
     3    1    4      ar
     4    1    8       1
     5    5    6      ar
     6    5    7      ar
     7    5    8       1
     8    5    9       1
     9    9   10       1
    10   10   11       1
    11   11   12       1
    12   11   13       1
    13   12   17       1
    14   13   14       1
    15   13   15       1
    16   15   16       1
    17   15   17       1
    18   17   18       1
    19   18   19       1
    20   18   27       1
    21   19   20       2
    22   20   21       1
    23   21   22      ar
    24   21   27      ar
    25   22   23       1
    26   22   24      ar
    27   24   25      ar
    28   25   26      ar
    29   26   27      ar
    30   25   39       1
    31   23   38       1
    32   23   37       1
    33   10   28       1
    34   10   29       1
    35   11   30       1
    36   13   31       1
    37   14   32       1
    38   15   33       1
    39   16   34       1
    40   17   35       1
    41   19   36       1
@<TRIPOS>SUBSTRUCTURE
     1 ADP594      1 GROUP             4 B     ADP     0 **** ADP B 594
