@<TRIPOS>MOLECULE
1c1d_NAI_1_ligand
   71    75     1     0     0
SMALL
NO_CHARGES


@<TRIPOS>ATOM
     1 PA          19.2220    51.6360   -19.1860 P.3          1 NAI360   0.0000
     2 O1A         18.3400    51.7970   -20.3580 O.co2        1 NAI360   0.0000
     3 O2A         18.8850    52.5330   -18.0510 O.co2        1 NAI360  -1.0000
     4 O5B         20.6820    52.1340   -19.5960 O.3          1 NAI360   0.0000
     5 C5B         21.4290    51.5430   -20.6790 C.3          1 NAI360   0.0000
     6 C4B         22.5290    52.5590   -20.8420 C.3          1 NAI360   0.0000
     7 O4B         23.4790    52.1310   -21.8670 O.3          1 NAI360   0.0000
     8 C3B         22.0160    53.9110   -21.3390 C.3          1 NAI360   0.0000
     9 O3B         22.6830    54.9990   -20.6450 O.3          1 NAI360   0.0000
    10 C2B         22.3910    53.7990   -22.8110 C.3          1 NAI360   0.0000
    11 O2B         22.4990    55.1030   -23.3910 O.3          1 NAI360   0.0000
    12 C1B         23.7870    53.1930   -22.6500 C.3          1 NAI360   0.0000
    13 N9A         24.2320    52.6270   -23.8880 N.pl3        1 NAI360   0.0000
    14 C8A         23.4560    52.0620   -24.8440 C.2          1 NAI360   0.0000
    15 N7A         24.1630    51.5750   -25.8700 N.2          1 NAI360   0.0000
    16 C5A         25.4680    51.8990   -25.5240 C.ar         1 NAI360   0.0000
    17 C6A         26.6910    51.6480   -26.1780 C.ar         1 NAI360   0.0000
    18 N6A         26.8140    51.0280   -27.3490 N.pl3        1 NAI360   0.0000
    19 N1A         27.8150    52.0740   -25.5590 N.ar         1 NAI360   0.0000
    20 C2A         27.6880    52.6870   -24.3510 C.ar         1 NAI360   0.0000
    21 N3A         26.5990    52.9420   -23.6710 N.ar         1 NAI360   0.0000
    22 C4A         25.5200    52.5410   -24.3140 C.ar         1 NAI360   0.0000
    23 O3          19.2770    50.0880   -18.7990 O.3          1 NAI360   0.0000
    24 PN          19.6010    49.4760   -17.3370 P.3          1 NAI360   0.0000
    25 O1N         18.4110    49.2370   -16.4750 O.co2        1 NAI360   0.0000
    26 O2N         20.6660    50.3020   -16.6790 O.co2        1 NAI360  -1.0000
    27 O5D         20.1090    48.0460   -17.8670 O.3          1 NAI360   0.0000
    28 C5D         21.4660    47.9040   -18.3990 C.3          1 NAI360   0.0000
    29 C4D         21.6630    46.4390   -18.7180 C.3          1 NAI360   0.0000
    30 O4D         21.5490    45.6870   -17.4900 O.3          1 NAI360   0.0000
    31 C3D         20.6660    45.8280   -19.7060 C.3          1 NAI360   0.0000
    32 O3D         21.2600    44.6920   -20.3570 O.3          1 NAI360   0.0000
    33 C2D         19.6420    45.2510   -18.7410 C.3          1 NAI360   0.0000
    34 O2D         18.8840    44.1960   -19.3620 O.3          1 NAI360   0.0000
    35 C1D         20.5610    44.6890   -17.6800 C.3          1 NAI360   0.0000
    36 N1N         19.8780    44.3750   -16.4350 N.pl3        1 NAI360   0.0000
    37 C2N         19.0560    45.3180   -15.8240 C.2          1 NAI360   0.0000
    38 C3N         18.4130    45.0640   -14.5440 C.2          1 NAI360   0.0000
    39 C7N         17.7320    46.2170   -13.8990 C.2          1 NAI360   0.0000
    40 O7N         17.2370    45.9260   -12.7980 O.2          1 NAI360   0.0000
    41 N7N         17.6580    47.4710   -14.4380 N.am         1 NAI360   0.0000
    42 C4N         18.5660    43.7530   -13.9120 C.3          1 NAI360   0.0000
    43 C5N         19.4710    42.7970   -14.6370 C.2          1 NAI360   0.0000
    44 C6N         20.0370    43.1270   -15.7860 C.2          1 NAI360   0.0000
    45 H5B1        20.8756    51.4621   -21.5080 H            1 NAI360   0.0000
    46 H5B2        21.7906    50.6444   -20.4306 H            1 NAI360   0.0000
    47 H4B         23.0060    52.6801   -19.9715 H            1 NAI360   0.0000
    48 H3B         21.0241    53.9759   -21.2297 H            1 NAI360   0.0000
    49 H5          23.6678    54.9460   -20.8106 H            1 NAI360   0.0000
    50 H2B         21.7706    53.2028   -23.3205 H            1 NAI360   0.0000
    51 H7          23.4379    55.4336   -23.2953 H            1 NAI360   0.0000
    52 H1B         24.4487    53.8174   -22.2349 H            1 NAI360   0.0000
    53 H8A         22.4587    52.0140   -24.7885 H            1 NAI360   0.0000
    54 H6A1        27.7202    50.8881   -27.7479 H            1 NAI360   0.0000
    55 H6A2        26.0002    50.7020   -27.8300 H            1 NAI360   0.0000
    56 H2A         28.5428    52.9830   -23.9247 H            1 NAI360   0.0000
    57 H5D1        22.1351    48.2003   -17.7175 H            1 NAI360   0.0000
    58 H5D2        21.5693    48.4532   -19.2283 H            1 NAI360   0.0000
    59 H4D         22.5863    46.3149   -19.0814 H            1 NAI360   0.0000
    60 H3D         20.2796    46.4943   -20.3438 H            1 NAI360   0.0000
    61 H17         22.0797    44.9818   -20.8510 H            1 NAI360   0.0000
    62 H2D         19.0452    45.9626   -18.3703 H            1 NAI360   0.0000
    63 H19         17.9673    44.1652   -18.9636 H            1 NAI360   0.0000
    64 H1D         20.9971    43.8605   -18.0312 H            1 NAI360   0.0000
    65 H2N         18.9031    46.1956   -16.2783 H            1 NAI360   0.0000
    66 H7N1        17.1820    48.1996   -13.9455 H            1 NAI360   0.0000
    67 H7N2        18.0798    47.6598   -15.3248 H            1 NAI360   0.0000
    68 H4N1        17.6607    43.3332   -13.8465 H            1 NAI360   0.0000
    69 H4N2        18.9357    43.8932   -12.9935 H            1 NAI360   0.0000
    70 H5N         19.6485    41.8950   -14.2435 H            1 NAI360   0.0000
    71 H6N         20.6197    42.4453   -16.2285 H            1 NAI360   0.0000
@<TRIPOS>BOND
     1    1    2      ar
     2    1    3      ar
     3    1    4       1
     4    1   23       1
     5    4    5       1
     6    5    6       1
     7    6    7       1
     8    6    8       1
     9    7   12       1
    10    8    9       1
    11    8   10       1
    12   10   11       1
    13   10   12       1
    14   12   13       1
    15   13   14       1
    16   13   22       1
    17   14   15       2
    18   15   16       1
    19   16   17      ar
    20   16   22      ar
    21   17   18       1
    22   17   19      ar
    23   19   20      ar
    24   20   21      ar
    25   21   22      ar
    26   23   24       1
    27   24   25      ar
    28   24   26      ar
    29   24   27       1
    30   27   28       1
    31   28   29       1
    32   29   30       1
    33   29   31       1
    34   30   35       1
    35   31   32       1
    36   31   33       1
    37   33   34       1
    38   33   35       1
    39   35   36       1
    40   36   37       1
    41   36   44       1
    42   37   38       2
    43   38   39       1
    44   38   42       1
    45   39   40       2
    46   39   41      am
    47   42   43       1
    48   43   44       2
    49   44   71       1
    50    5   45       1
    51    5   46       1
    52    6   47       1
    53    8   48       1
    54    9   49       1
    55   10   50       1
    56   11   51       1
    57   12   52       1
    58   14   53       1
    59   18   54       1
    60   18   55       1
    61   20   56       1
    62   43   70       1
    63   28   57       1
    64   28   58       1
    65   29   59       1
    66   31   60       1
    67   32   61       1
    68   33   62       1
    69   34   63       1
    70   35   64       1
    71   37   65       1
    72   41   66       1
    73   41   67       1
    74   42   68       1
    75   42   69       1
@<TRIPOS>SUBSTRUCTURE
     1 NAI360      1 GROUP             4 A     NAI     0 **** NAI A 360
