@<TRIPOS>MOLECULE
1t2a_GDP_4_ligand
   40    42     1     0     0
SMALL
NO_CHARGES


@<TRIPOS>ATOM
     1 PB         -15.6850   -66.8080   -25.0290 P.3          1 GDP1102   0.0000
     2 O1B        -14.4660   -67.4130   -24.3430 O.co2        1 GDP1102   0.0000
     3 O2B        -16.1770   -65.4640   -24.5030 O.co2        1 GDP1102  -1.0000
     4 O3B        -15.8180   -67.0520   -26.5350 O.co2        1 GDP1102  -1.0000
     5 O3A        -16.8200   -67.8110   -24.4250 O.3          1 GDP1102   0.0000
     6 PA         -18.2890   -67.6490   -23.7340 P.3          1 GDP1102   0.0000
     7 O1A        -18.9550   -68.9670   -23.8320 O.co2        1 GDP1102   0.0000
     8 O2A        -18.1570   -67.0100   -22.4000 O.co2        1 GDP1102  -1.0000
     9 O5'        -19.0830   -66.6040   -24.6390 O.3          1 GDP1102   0.0000
    10 C5'        -19.2810   -66.8470   -26.0250 C.3          1 GDP1102   0.0000
    11 C4'        -20.1300   -65.7550   -26.6310 C.3          1 GDP1102   0.0000
    12 O4'        -21.4880   -65.8640   -26.1010 O.3          1 GDP1102   0.0000
    13 C3'        -19.6730   -64.3280   -26.3180 C.3          1 GDP1102   0.0000
    14 O3'        -19.8560   -63.5000   -27.4650 O.3          1 GDP1102   0.0000
    15 C2'        -20.6200   -63.9100   -25.1960 C.3          1 GDP1102   0.0000
    16 O2'        -20.8230   -62.5080   -25.1470 O.3          1 GDP1102   0.0000
    17 C1'        -21.9040   -64.5920   -25.6520 C.3          1 GDP1102   0.0000
    18 N9         -22.9440   -64.7720   -24.6420 N.pl3        1 GDP1102   0.0000
    19 C8         -24.2570   -64.3750   -24.7420 C.2          1 GDP1102   0.0000
    20 N7         -24.9180   -64.4950   -23.6230 N.2          1 GDP1102   0.0000
    21 C5         -23.9880   -65.0070   -22.7270 C.2          1 GDP1102   0.0000
    22 C6         -24.1250   -65.3590   -21.3540 C.2          1 GDP1102   0.0000
    23 O6         -25.1180   -65.2460   -20.6210 O.2          1 GDP1102   0.0000
    24 N1         -22.9400   -65.8800   -20.8380 N.2          1 GDP1102   0.0000
    25 C2         -21.7690   -66.0270   -21.5450 C.2          1 GDP1102   0.0000
    26 N2         -20.7350   -66.5710   -20.8800 N.pl3        1 GDP1102   0.0000
    27 N3         -21.6220   -65.6780   -22.8160 N.pl3        1 GDP1102   0.0000
    28 C4         -22.7650   -65.1850   -23.3410 C.2          1 GDP1102   0.0000
    29 H5'1       -19.7410   -67.7270   -26.1435 H            1 GDP1102   0.0000
    30 H5'2       -18.3940   -66.8698   -26.4862 H            1 GDP1102   0.0000
    31 H4'        -20.1574   -65.8773   -27.6231 H            1 GDP1102   0.0000
    32 H3'        -18.7214   -64.3134   -26.0109 H            1 GDP1102   0.0000
    33 H5         -19.1671   -62.7752   -27.4662 H            1 GDP1102   0.0000
    34 H2'        -20.3147   -64.2641   -24.3120 H            1 GDP1102   0.0000
    35 H7         -20.7372   -62.1264   -26.0673 H            1 GDP1102   0.0000
    36 H1'        -22.2854   -64.0836   -26.4241 H            1 GDP1102   0.0000
    37 H9         -24.6643   -64.0291   -25.5872 H            1 GDP1102   0.0000
    38 H10        -19.8577   -66.7031   -21.3414 H            1 GDP1102   0.0000
    39 H11        -20.8432   -66.8436   -19.9240 H            1 GDP1102   0.0000
    40 H12        -20.7663   -65.7690   -23.3255 H            1 GDP1102   0.0000
@<TRIPOS>BOND
     1    1    2      ar
     2    1    3      ar
     3    1    4      ar
     4    1    5       1
     5    5    6       1
     6    6    7      ar
     7    6    8      ar
     8    6    9       1
     9    9   10       1
    10   10   11       1
    11   11   12       1
    12   11   13       1
    13   12   17       1
    14   13   14       1
    15   13   15       1
    16   15   16       1
    17   15   17       1
    18   17   18       1
    19   18   19       1
    20   18   28       1
    21   19   20       2
    22   20   21       1
    23   21   22       1
    24   21   28       2
    25   22   23       2
    26   22   24       1
    27   24   25       2
    28   25   26       1
    29   25   27       1
    30   27   28       1
    31   26   39       1
    32   26   38       1
    33   19   37       1
    34   10   29       1
    35   10   30       1
    36   11   31       1
    37   13   32       1
    38   14   33       1
    39   15   34       1
    40   16   35       1
    41   17   36       1
    42   27   40       1
@<TRIPOS>SUBSTRUCTURE
     1 GDP1102     1 GROUP             4 B     GDP     0 **** GDP B1102
