@<TRIPOS>MOLECULE
3isi_B88_1_ligand
   26    25     1     0     0
SMALL
NO_CHARGES


@<TRIPOS>ATOM
     1 O4         -14.2170    39.4480    -2.5750 O.co2        1 B882000   0.0000
     2 P2         -13.5250    38.0780    -2.7250 P.3          1 B882000   0.0000
     3 O5         -12.2450    37.9460    -1.9510 O.co2        1 B882000  -1.0000
     4 C9         -14.5840    36.5940    -2.4640 C.3          1 B882000   0.0000
     5 N1         -14.4650    35.9600    -1.1620 N.3          1 B882000   0.0000
     6 C12        -16.0440    36.9620    -2.5680 C.3          1 B882000   0.0000
     7 C6         -13.2240    38.0620    -4.5310 C.3          1 B882000   0.0000
     8 C7         -11.9270    38.6290    -5.1470 C.3          1 B882000   0.0000
     9 C8         -10.7240    38.8630    -4.2690 C.2          1 B882000   0.0000
    10 O1         -10.1430    37.8150    -3.9680 O.co2        1 B882000   0.0000
    11 O6         -10.3140    40.0220    -3.9830 O.co2        1 B882000  -1.0000
    12 C13        -12.1160    39.8370    -6.0610 C.3          1 B882000   0.0000
    13 C14        -13.3960    39.7380    -6.8620 C.2          1 B882000   0.0000
    14 O3         -14.1600    40.7180    -6.7210 O.co2        1 B882000   0.0000
    15 O2         -13.6370    38.7130    -7.5710 O.co2        1 B882000  -1.0000
    16 H1         -14.3715    35.9192    -3.1707 H            1 B882000   0.0000
    17 H2         -14.7163    36.6141    -0.4485 H            1 B882000   0.0000
    18 H3         -16.6044    36.1464    -2.4241 H            1 B882000   0.0000
    19 H4         -16.2658    37.6458    -1.8728 H            1 B882000   0.0000
    20 H5         -16.2292    37.3377    -3.4761 H            1 B882000   0.0000
    21 H6         -13.9776    38.5724    -4.9453 H            1 B882000   0.0000
    22 H7         -13.2740    37.1045    -4.8151 H            1 B882000   0.0000
    23 H8         -11.6269    37.9068    -5.7702 H            1 B882000   0.0000
    24 H9         -11.3421    39.8901    -6.6921 H            1 B882000   0.0000
    25 H10        -12.1472    40.6651    -5.5013 H            1 B882000   0.0000
    26 H11        -15.0756    35.1692    -1.1193 H            1 B882000   0.0000
@<TRIPOS>BOND
     1    1    2      ar
     2    2    3      ar
     3    2    4       1
     4    2    7       1
     5    4    5       1
     6    4    6       1
     7    7    8       1
     8    8    9       1
     9    8   12       1
    10    9   10      ar
    11    9   11      ar
    12   12   13       1
    13   13   14      ar
    14   13   15      ar
    15   12   25       1
    16    4   16       1
    17   12   24       1
    18    5   17       1
    19    6   18       1
    20    6   19       1
    21    6   20       1
    22    7   21       1
    23    7   22       1
    24    8   23       1
    25    5   26       1
@<TRIPOS>SUBSTRUCTURE
     1 B882000     1 GROUP             4 X     B88     0 **** B88 X2000
