@<TRIPOS>MOLECULE
2wek_DIF_4_ligand
   29    30     1     0     0
SMALL
NO_CHARGES


@<TRIPOS>ATOM
     1 C1         -33.9180    -9.8090   -36.8370 C.ar         1 DIF1373   0.0000
     2 C2         -34.3050    -9.3380   -38.0940 C.ar         1 DIF1373   0.0000
     3 CL2        -33.4060    -9.8570   -39.4790 Cl           1 DIF1373   0.0000
     4 C3         -35.4030    -8.4760   -38.2590 C.ar         1 DIF1373   0.0000
     5 C4         -36.1210    -8.0880   -37.1270 C.ar         1 DIF1373   0.0000
     6 CL4        -37.4640    -6.9870   -37.2910 Cl           1 DIF1373   0.0000
     7 C5         -35.7250    -8.5450   -35.8670 C.ar         1 DIF1373   0.0000
     8 C6         -34.6340    -9.4100   -35.7070 C.ar         1 DIF1373   0.0000
     9 N1         -35.8080    -8.0370   -39.4910 N.pl3        1 DIF1373   0.0000
    10 C7         -36.5980    -8.4460   -41.7310 C.ar         1 DIF1373   0.0000
    11 C8         -36.4170    -8.8640   -40.4090 C.ar         1 DIF1373   0.0000
    12 C9         -36.8430   -10.1620   -40.0860 C.ar         1 DIF1373   0.0000
    13 C10        -37.4470   -11.0040   -41.0310 C.ar         1 DIF1373   0.0000
    14 C11        -37.6310   -10.5660   -42.3410 C.ar         1 DIF1373   0.0000
    15 C12        -37.1890    -9.2930   -42.6760 C.ar         1 DIF1373   0.0000
    16 C13        -36.1900    -7.0720   -42.2480 C.3          1 DIF1373   0.0000
    17 C14        -37.1260    -5.9860   -41.7340 C.2          1 DIF1373   0.0000
    18 O1         -37.3750    -5.9760   -40.5140 O.co2        1 DIF1373   0.0000
    19 O2         -37.4700    -5.0980   -42.5350 O.co2        1 DIF1373  -1.0000
    20 H1         -33.1359   -10.4258   -36.7476 H            1 DIF1373   0.0000
    21 H2         -36.2332    -8.2471   -35.0589 H            1 DIF1373   0.0000
    22 H3         -34.3728    -9.7360   -34.7984 H            1 DIF1373   0.0000
    23 H4         -35.6558    -7.0789   -39.7338 H            1 DIF1373   0.0000
    24 H5         -36.7117   -10.4967   -39.1529 H            1 DIF1373   0.0000
    25 H6         -37.7461   -11.9202   -40.7643 H            1 DIF1373   0.0000
    26 H7         -38.0696   -11.1528   -43.0217 H            1 DIF1373   0.0000
    27 H8         -37.2957    -8.9728   -43.6173 H            1 DIF1373   0.0000
    28 H9         -36.2172    -7.0790   -43.2476 H            1 DIF1373   0.0000
    29 H10        -35.2595    -6.8718   -41.9413 H            1 DIF1373   0.0000
@<TRIPOS>BOND
     1    1    2      ar
     2    1    8      ar
     3    2    3       1
     4    2    4      ar
     5    4    5      ar
     6    4    9       1
     7    5    6       1
     8    5    7      ar
     9    7    8      ar
    10    9   11       1
    11   10   11      ar
    12   10   15      ar
    13   10   16       1
    14   11   12      ar
    15   12   13      ar
    16   13   14      ar
    17   14   15      ar
    18   16   17       1
    19   17   18      ar
    20   17   19      ar
    21    1   20       1
    22    7   21       1
    23    8   22       1
    24    9   23       1
    25   12   24       1
    26   13   25       1
    27   14   26       1
    28   15   27       1
    29   16   28       1
    30   16   29       1
@<TRIPOS>SUBSTRUCTURE
     1 DIF1373     1 GROUP             4 B     DIF     0 **** DIF B1373
