@<TRIPOS>MOLECULE
2z1m_GDP_2_ligand
   40    42     1     0     0
SMALL
NO_CHARGES


@<TRIPOS>ATOM
     1 PB         132.5240    -0.1520    47.3040 P.3          1 GDP1002   0.0000
     2 O1B        132.9230     0.8620    46.2660 O.co2        1 GDP1002   0.0000
     3 O2B        131.0150    -0.2790    47.3470 O.co2        1 GDP1002  -1.0000
     4 O3B        133.1760    -1.5000    46.9670 O.co2        1 GDP1002  -1.0000
     5 O3A        133.1230     0.4110    48.6860 O.3          1 GDP1002   0.0000
     6 PA         132.2800     0.6760    50.0280 P.3          1 GDP1002   0.0000
     7 O1A        133.2880     0.6580    51.1530 O.co2        1 GDP1002   0.0000
     8 O2A        131.5260     1.9830    49.9990 O.co2        1 GDP1002  -1.0000
     9 O5'        131.2400    -0.5630    50.0840 O.3          1 GDP1002   0.0000
    10 C5'        131.6620    -1.9170    50.3020 C.3          1 GDP1002   0.0000
    11 C4'        130.4280    -2.7820    50.5620 C.3          1 GDP1002   0.0000
    12 O4'        129.9110    -2.4750    51.8620 O.3          1 GDP1002   0.0000
    13 C3'        129.3030    -2.5230    49.5530 C.3          1 GDP1002   0.0000
    14 O3'        128.7380    -3.7460    49.0720 O.3          1 GDP1002   0.0000
    15 C2'        128.2460    -1.7800    50.3410 C.3          1 GDP1002   0.0000
    16 O2'        126.9210    -2.0690    49.8920 O.3          1 GDP1002   0.0000
    17 C1'        128.4940    -2.2680    51.7670 C.3          1 GDP1002   0.0000
    18 N9         127.9870    -1.2950    52.7740 N.pl3        1 GDP1002   0.0000
    19 C8         127.1800    -1.6200    53.7990 C.2          1 GDP1002   0.0000
    20 N7         126.8770    -0.5420    54.5540 N.2          1 GDP1002   0.0000
    21 C5         127.4920     0.5080    54.0140 C.2          1 GDP1002   0.0000
    22 C6         127.5850     1.9500    54.3300 C.2          1 GDP1002   0.0000
    23 O6         126.9790     2.4130    55.3110 O.2          1 GDP1002   0.0000
    24 N1         128.3240     2.7270    53.5320 N.2          1 GDP1002   0.0000
    25 C2         128.9810     2.2370    52.4600 C.2          1 GDP1002   0.0000
    26 N2         129.7140     3.0890    51.7100 N.pl3        1 GDP1002   0.0000
    27 N3         128.9480     0.9250    52.1120 N.pl3        1 GDP1002   0.0000
    28 C4         128.2250     0.0270    52.8360 C.2          1 GDP1002   0.0000
    29 H5'1       132.2723    -1.9556    51.0933 H            1 GDP1002   0.0000
    30 H5'2       132.1437    -2.2533    49.4928 H            1 GDP1002   0.0000
    31 H4'        130.6872    -3.7472    50.5283 H            1 GDP1002   0.0000
    32 H3'        129.6334    -1.9642    48.7924 H            1 GDP1002   0.0000
    33 H5         128.4034    -3.6143    48.1389 H            1 GDP1002   0.0000
    34 H2'        128.4139    -0.7957    50.2868 H            1 GDP1002   0.0000
    35 H7         126.8889    -2.9984    49.5244 H            1 GDP1002   0.0000
    36 H1'        128.0280    -3.1432    51.8970 H            1 GDP1002   0.0000
    37 H9         126.8457    -2.5449    53.9799 H            1 GDP1002   0.0000
    38 H10        130.2104     2.7510    50.9104 H            1 GDP1002   0.0000
    39 H11        129.7601     4.0575    51.9546 H            1 GDP1002   0.0000
    40 H12        129.4620     0.6140    51.3126 H            1 GDP1002   0.0000
@<TRIPOS>BOND
     1    1    2      ar
     2    1    3      ar
     3    1    4      ar
     4    1    5       1
     5    5    6       1
     6    6    7      ar
     7    6    8      ar
     8    6    9       1
     9    9   10       1
    10   10   11       1
    11   11   12       1
    12   11   13       1
    13   12   17       1
    14   13   14       1
    15   13   15       1
    16   15   16       1
    17   15   17       1
    18   17   18       1
    19   18   19       1
    20   18   28       1
    21   19   20       2
    22   20   21       1
    23   21   22       1
    24   21   28       2
    25   22   23       2
    26   22   24       1
    27   24   25       2
    28   25   26       1
    29   25   27       1
    30   27   28       1
    31   26   39       1
    32   26   38       1
    33   19   37       1
    34   10   29       1
    35   10   30       1
    36   11   31       1
    37   13   32       1
    38   14   33       1
    39   15   34       1
    40   16   35       1
    41   17   36       1
    42   27   40       1
@<TRIPOS>SUBSTRUCTURE
     1 GDP1002     1 GROUP             4 A     GDP     0 **** GDP A1002
