@<TRIPOS>MOLECULE
2a1y_5GP_1_ligand
   36    38     1     0     0
SMALL
NO_CHARGES


@<TRIPOS>ATOM
     1 P          -37.8600   -28.2800     5.8270 P.3          1 5GP1344   0.0000
     2 O1P        -36.3930   -28.4370     5.6130 O.co2        1 5GP1344   0.0000
     3 O2P        -38.1780   -28.2870     7.3320 O.co2        1 5GP1344  -1.0000
     4 O3P        -38.6290   -29.3590     5.1480 O.co2        1 5GP1344  -1.0000
     5 O5'        -38.3610   -26.9030     5.2190 O.3          1 5GP1344   0.0000
     6 C5'        -37.7490   -25.6050     5.3100 C.3          1 5GP1344   0.0000
     7 C4'        -38.7880   -24.4620     5.4920 C.3          1 5GP1344   0.0000
     8 O4'        -40.1270   -24.7220     5.0180 O.3          1 5GP1344   0.0000
     9 C3'        -38.5270   -23.0530     4.9720 C.3          1 5GP1344   0.0000
    10 O3'        -37.4220   -22.9800     4.1410 O.3          1 5GP1344   0.0000
    11 C2'        -39.8100   -22.6250     4.2280 C.3          1 5GP1344   0.0000
    12 O2'        -39.7800   -22.7790     2.7900 O.3          1 5GP1344   0.0000
    13 C1'        -40.8950   -23.5630     4.7070 C.3          1 5GP1344   0.0000
    14 N9         -41.6530   -23.0180     5.8490 N.pl3        1 5GP1344   0.0000
    15 C8         -41.2180   -22.8050     7.0950 C.2          1 5GP1344   0.0000
    16 N7         -42.2290   -22.2880     7.8390 N.2          1 5GP1344   0.0000
    17 C5         -43.3090   -22.1720     7.0380 C.2          1 5GP1344   0.0000
    18 C6         -44.6150   -21.7180     7.2460 C.2          1 5GP1344   0.0000
    19 O6         -44.9560   -21.2930     8.3740 O.2          1 5GP1344   0.0000
    20 N1         -45.4860   -21.7420     6.2200 N.pl3        1 5GP1344   0.0000
    21 C2         -45.1050   -22.1770     4.9900 C.2          1 5GP1344   0.0000
    22 N2         -45.9750   -22.1800     3.9470 N.pl3        1 5GP1344   0.0000
    23 N3         -43.8430   -22.6330     4.7700 N.2          1 5GP1344   0.0000
    24 C4         -42.9320   -22.6340     5.7840 C.2          1 5GP1344   0.0000
    25 H5'1       -37.2313   -25.4360     4.4713 H            1 5GP1344   0.0000
    26 H5'2       -37.1267   -25.5991     6.0927 H            1 5GP1344   0.0000
    27 H4'        -38.8824   -24.3566     6.4819 H            1 5GP1344   0.0000
    28 H3'        -38.3863   -22.4420     5.7511 H            1 5GP1344   0.0000
    29 H5         -37.5602   -23.5754     3.3495 H            1 5GP1344   0.0000
    30 H2'        -40.0442   -21.6823     4.4657 H            1 5GP1344   0.0000
    31 H7         -39.0378   -22.2263     2.4110 H            1 5GP1344   0.0000
    32 H1'        -41.5208   -23.7661     3.9539 H            1 5GP1344   0.0000
    33 H9         -40.2941   -22.9962     7.4265 H            1 5GP1344   0.0000
    34 H10        -46.4268   -21.4354     6.3648 H            1 5GP1344   0.0000
    35 H11        -45.6776   -22.5036     3.0487 H            1 5GP1344   0.0000
    36 H12        -46.9129   -21.8587     4.0773 H            1 5GP1344   0.0000
@<TRIPOS>BOND
     1    1    2      ar
     2    1    3      ar
     3    1    4      ar
     4    1    5       1
     5    5    6       1
     6    6    7       1
     7    7    8       1
     8    7    9       1
     9    8   13       1
    10    9   10       1
    11    9   11       1
    12   11   12       1
    13   11   13       1
    14   13   14       1
    15   14   15       1
    16   14   24       1
    17   15   16       2
    18   16   17       1
    19   17   18       1
    20   17   24       2
    21   18   19       2
    22   18   20       1
    23   20   21       1
    24   21   22       1
    25   21   23       2
    26   23   24       1
    27   22   36       1
    28   22   35       1
    29    6   25       1
    30    6   26       1
    31    7   27       1
    32    9   28       1
    33   10   29       1
    34   11   30       1
    35   12   31       1
    36   13   32       1
    37   15   33       1
    38   20   34       1
@<TRIPOS>SUBSTRUCTURE
     1 5GP1344     1 GROUP             4 A     5GP     0 **** 5GP A1344
