@<TRIPOS>MOLECULE
4pyt_FAD_1_ligand
   84    89     1     0     0
SMALL
NO_CHARGES


@<TRIPOS>ATOM
     1 PA          22.3310    48.6260    79.9700 P.3          1 FAD401   0.0000
     2 O1A         23.8470    48.9200    80.0960 O.co2        1 FAD401   0.0000
     3 O2A         21.5090    49.4500    79.0120 O.co2        1 FAD401  -1.0000
     4 O5B         21.5490    47.5860    80.8780 O.3          1 FAD401   0.0000
     5 C5B         22.1960    46.7450    81.8110 C.3          1 FAD401   0.0000
     6 C4B         21.2490    45.7480    82.3770 C.3          1 FAD401   0.0000
     7 O4B         20.0370    46.3940    82.8620 O.3          1 FAD401   0.0000
     8 C3B         20.7880    44.8070    81.3130 C.3          1 FAD401   0.0000
     9 O3B         20.5780    43.5450    81.8270 O.3          1 FAD401   0.0000
    10 C2B         19.5390    45.3570    80.8560 C.3          1 FAD401   0.0000
    11 O2B         18.6920    44.3700    80.4030 O.3          1 FAD401   0.0000
    12 C1B         18.9400    45.9590    82.1030 C.3          1 FAD401   0.0000
    13 N9A         18.1190    47.0970    81.9980 N.pl3        1 FAD401   0.0000
    14 C8A         18.4240    48.2900    81.4400 C.2          1 FAD401   0.0000
    15 N7A         17.3810    49.1390    81.5800 N.2          1 FAD401   0.0000
    16 C5A         16.4010    48.4710    82.2480 C.ar         1 FAD401   0.0000
    17 C6A         15.1290    48.8210    82.6830 C.ar         1 FAD401   0.0000
    18 N6A         14.6080    50.1520    82.4290 N.pl3        1 FAD401   0.0000
    19 N1A         14.3700    47.9210    83.3410 N.ar         1 FAD401   0.0000
    20 C2A         14.8450    46.6850    83.5780 C.ar         1 FAD401   0.0000
    21 N3A         16.0720    46.3130    83.1710 N.ar         1 FAD401   0.0000
    22 C4A         16.8670    47.1910    82.5120 C.ar         1 FAD401   0.0000
    23 N1          28.2680    50.9110    87.1480 N.2          1 FAD401   0.0000
    24 C2          28.2820    51.0590    88.5690 C.2          1 FAD401   0.0000
    25 O2          27.4760    50.4700    89.2510 O.2          1 FAD401   0.0000
    26 N3          29.2820    51.9090    89.1180 N.pl3        1 FAD401   0.0000
    27 C4          30.2490    52.5920    88.3480 C.2          1 FAD401   0.0000
    28 O4          31.0740    53.3030    88.8780 O.2          1 FAD401   0.0000
    29 C4X         30.2060    52.4300    86.8900 C.2          1 FAD401   0.0000
    30 N5          31.1060    53.0570    86.0810 N.2          1 FAD401   0.0000
    31 C5X         31.0260    52.8820    84.7590 C.ar         1 FAD401   0.0000
    32 C6          31.9630    53.5730    83.9730 C.ar         1 FAD401   0.0000
    33 C7          31.9570    53.4470    82.5950 C.ar         1 FAD401   0.0000
    34 C7M         32.9900    54.2100    81.7800 C.3          1 FAD401   0.0000
    35 C8          31.0140    52.6400    81.9940 C.ar         1 FAD401   0.0000
    36 C8M         30.9310    52.4640    80.5390 C.3          1 FAD401   0.0000
    37 C9          30.0710    51.9800    82.7770 C.ar         1 FAD401   0.0000
    38 C9A         30.0780    52.0880    84.1760 C.ar         1 FAD401   0.0000
    39 N10         29.1810    51.4250    84.9590 N.pl3        1 FAD401   0.0000
    40 C10         29.2290    51.5930    86.3140 C.2          1 FAD401   0.0000
    41 C1'         28.1190    50.5010    84.3910 C.3          1 FAD401   0.0000
    42 C2'         26.8140    51.0650    83.9520 C.3          1 FAD401   0.0000
    43 O2'         27.0690    52.4090    83.7640 O.3          1 FAD401   0.0000
    44 C3'         25.7270    50.7620    85.0040 C.3          1 FAD401   0.0000
    45 O3'         25.7190    49.3980    85.2780 O.3          1 FAD401   0.0000
    46 C4'         24.3650    51.3200    84.6040 C.3          1 FAD401   0.0000
    47 O4'         23.5330    51.1800    85.6960 O.3          1 FAD401   0.0000
    48 C5'         23.7310    50.7140    83.3320 C.3          1 FAD401   0.0000
    49 O5'         22.7290    51.4500    82.6130 O.3          1 FAD401   0.0000
    50 P           22.2640    51.2510    81.1050 P.3          1 FAD401   0.0000
    51 O1P         21.0830    52.1650    81.4800 O.co2        1 FAD401   0.0000
    52 O2P         23.6540    51.8390    80.7010 O.co2        1 FAD401  -1.0000
    53 O3P         22.1040    49.6780    81.2480 O.3          1 FAD401   0.0000
    54 H5B1        22.5650    47.3037    82.5537 H            1 FAD401   0.0000
    55 H5B2        22.9432    46.2631    81.3535 H            1 FAD401   0.0000
    56 H4B         21.6876    45.2400    83.1183 H            1 FAD401   0.0000
    57 H3B         21.4503    44.7740    80.5645 H            1 FAD401   0.0000
    58 H5          21.4230    43.0141    81.7629 H            1 FAD401   0.0000
    59 H2B         19.6874    46.0543    80.1547 H            1 FAD401   0.0000
    60 H7          18.1014    44.7407    79.6862 H            1 FAD401   0.0000
    61 H1B         18.4521    45.2478    82.6091 H            1 FAD401   0.0000
    62 H8A         19.2900    48.5111    80.9915 H            1 FAD401   0.0000
    63 H6A1        13.6917    50.3988    82.7443 H            1 FAD401   0.0000
    64 H6A2        15.1654    50.8220    81.9387 H            1 FAD401   0.0000
    65 H2A         14.2727    46.0275    84.0681 H            1 FAD401   0.0000
    66 H13         29.3014    52.0304    90.1104 H            1 FAD401   0.0000
    67 H14         32.6409    54.1616    84.4135 H            1 FAD401   0.0000
    68 H7M1        32.8566    54.0168    80.8080 H            1 FAD401   0.0000
    69 H7M2        32.8843    55.1910    81.9424 H            1 FAD401   0.0000
    70 H7M3        33.9082    53.9238    82.0538 H            1 FAD401   0.0000
    71 H8M1        30.1800    51.8408    80.3209 H            1 FAD401   0.0000
    72 H8M2        30.7659    53.3497    80.1050 H            1 FAD401   0.0000
    73 H8M3        31.7906    52.0817    80.1999 H            1 FAD401   0.0000
    74 H21         29.3739    51.4170    82.3331 H            1 FAD401   0.0000
    75 H1'1        27.9191    49.8202    85.0957 H            1 FAD401   0.0000
    76 H1'2        28.5225    50.0488    83.5956 H            1 FAD401   0.0000
    77 H2'         26.5529    50.6530    83.0790 H            1 FAD401   0.0000
    78 H25         26.8802    52.6543    82.8131 H            1 FAD401   0.0000
    79 H3'         25.9977    51.2278    85.8465 H            1 FAD401   0.0000
    80 H27         26.0104    48.8931    84.4655 H            1 FAD401   0.0000
    81 H4'         24.4807    52.2999    84.4413 H            1 FAD401   0.0000
    82 H29         22.6260    51.5364    85.4718 H            1 FAD401   0.0000
    83 H5'1        23.3146    49.8458    83.6017 H            1 FAD401   0.0000
    84 H5'2        24.4784    50.5403    82.6907 H            1 FAD401   0.0000
@<TRIPOS>BOND
     1    1    2      ar
     2    1    3      ar
     3    1    4       1
     4    1   53       1
     5    4    5       1
     6    5    6       1
     7    6    7       1
     8    6    8       1
     9    7   12       1
    10    8    9       1
    11    8   10       1
    12   10   11       1
    13   10   12       1
    14   12   13       1
    15   13   14       1
    16   13   22       1
    17   14   15       2
    18   15   16       1
    19   16   17      ar
    20   16   22      ar
    21   17   18       1
    22   17   19      ar
    23   19   20      ar
    24   20   21      ar
    25   21   22      ar
    26   23   24       1
    27   23   40       2
    28   24   25       2
    29   24   26       1
    30   26   27       1
    31   27   28       2
    32   27   29       1
    33   29   30       2
    34   29   40       1
    35   30   31       1
    36   31   32      ar
    37   31   38      ar
    38   32   33      ar
    39   33   34       1
    40   33   35      ar
    41   35   36       1
    42   35   37      ar
    43   37   38      ar
    44   38   39       1
    45   39   40       1
    46   39   41       1
    47   41   42       1
    48   42   43       1
    49   42   44       1
    50   44   45       1
    51   44   46       1
    52   46   47       1
    53   46   48       1
    54   48   49       1
    55   49   50       1
    56   50   51      ar
    57   50   52      ar
    58   50   53       1
    59   48   84       1
    60    5   54       1
    61    5   55       1
    62    6   56       1
    63    8   57       1
    64    9   58       1
    65   10   59       1
    66   11   60       1
    67   12   61       1
    68   14   62       1
    69   18   63       1
    70   18   64       1
    71   20   65       1
    72   26   66       1
    73   32   67       1
    74   34   68       1
    75   34   69       1
    76   34   70       1
    77   36   71       1
    78   36   72       1
    79   36   73       1
    80   37   74       1
    81   41   75       1
    82   41   76       1
    83   42   77       1
    84   43   78       1
    85   44   79       1
    86   45   80       1
    87   46   81       1
    88   47   82       1
    89   48   83       1
@<TRIPOS>SUBSTRUCTURE
     1 FAD401      1 GROUP             4 A     FAD     0 **** FAD A 401
