@<TRIPOS>MOLECULE
2wnb_C5P_1_ligand
   33    34     1     0     0
SMALL
NO_CHARGES


@<TRIPOS>ATOM
     1 O3P         25.7650    29.8790    37.5920 O.co2        1 C5P1344   0.0000
     2 P           25.0690    31.3620    37.7590 P.3          1 C5P1344   0.0000
     3 O1P         24.3820    31.6370    39.0720 O.co2        1 C5P1344  -1.0000
     4 O2P         26.1990    32.4490    37.3960 O.co2        1 C5P1344  -1.0000
     5 O5'         24.0090    31.4130    36.4830 O.3          1 C5P1344   0.0000
     6 C5'         23.0820    30.2720    36.4800 C.3          1 C5P1344   0.0000
     7 C4'         22.5720    30.0450    35.0370 C.3          1 C5P1344   0.0000
     8 O4'         22.0510    31.4090    34.5370 O.3          1 C5P1344   0.0000
     9 C3'         23.9430    29.6950    34.3250 C.3          1 C5P1344   0.0000
    10 O3'         24.3640    28.2920    34.4860 O.3          1 C5P1344   0.0000
    11 C2'         23.5990    30.1510    32.8850 C.3          1 C5P1344   0.0000
    12 O2'         23.0080    29.1390    32.0100 O.3          1 C5P1344   0.0000
    13 C1'         22.6260    31.3740    33.1310 C.3          1 C5P1344   0.0000
    14 N1          23.3360    32.6800    32.7910 N.pl3        1 C5P1344   0.0000
    15 C2          23.3870    33.1350    31.4400 C.2          1 C5P1344   0.0000
    16 N3          23.9980    34.3620    31.2540 N.2          1 C5P1344   0.0000
    17 C4          24.5630    35.0950    32.2490 C.2          1 C5P1344   0.0000
    18 C5          24.5260    34.6570    33.5910 C.2          1 C5P1344   0.0000
    19 C6          23.9010    33.4370    33.8730 C.2          1 C5P1344   0.0000
    20 O2          22.9120    32.4210    30.5060 O.2          1 C5P1344   0.0000
    21 N4          25.1730    36.2670    32.0410 N.pl3        1 C5P1344   0.0000
    22 H5'1        22.3082    30.4665    37.0829 H            1 C5P1344   0.0000
    23 H5'2        23.5570    29.4527    36.8010 H            1 C5P1344   0.0000
    24 H4'         21.8934    29.3137    34.9684 H            1 C5P1344   0.0000
    25 H3'         24.6581    30.2909    34.6904 H            1 C5P1344   0.0000
    26 H5          24.4769    28.0873    35.4583 H            1 C5P1344   0.0000
    27 H2'         24.4339    30.4931    32.4538 H            1 C5P1344   0.0000
    28 H7          22.1047    29.4449    31.7092 H            1 C5P1344   0.0000
    29 H1'         21.8588    31.2774    32.4970 H            1 C5P1344   0.0000
    30 H9          24.9357    35.2043    34.3208 H            1 C5P1344   0.0000
    31 H10         23.8486    33.0979    34.8123 H            1 C5P1344   0.0000
    32 H11         25.5726    36.7661    32.8099 H            1 C5P1344   0.0000
    33 H12         25.2295    36.6442    31.1166 H            1 C5P1344   0.0000
@<TRIPOS>BOND
     1    1    2      ar
     2    2    3      ar
     3    2    4      ar
     4    2    5       1
     5    5    6       1
     6    6    7       1
     7    7    8       1
     8    7    9       1
     9    8   13       1
    10    9   10       1
    11    9   11       1
    12   11   12       1
    13   11   13       1
    14   13   14       1
    15   14   15       1
    16   14   19       1
    17   15   16       1
    18   15   20       2
    19   16   17       2
    20   17   18       1
    21   17   21       1
    22   18   19       2
    23   21   33       1
    24   21   32       1
    25    6   22       1
    26    6   23       1
    27    7   24       1
    28    9   25       1
    29   10   26       1
    30   11   27       1
    31   12   28       1
    32   13   29       1
    33   18   30       1
    34   19   31       1
@<TRIPOS>SUBSTRUCTURE
     1 C5P1344     1 GROUP             4 A     C5P     0 **** C5P A1344
