@<TRIPOS>MOLECULE
4b2g_V1N_2_ligand
   53    57     1     0     0
SMALL
NO_CHARGES


@<TRIPOS>ATOM
     1 C27        -23.6510    25.2450    -2.8130 C.ar         1 V1N1600   0.0000
     2 C28        -22.6480    26.0020    -3.3770 C.ar         1 V1N1600   0.0000
     3 C26        -24.2780    25.5810    -1.6300 C.ar         1 V1N1600   0.0000
     4 C29        -22.2010    27.1620    -2.7830 C.ar         1 V1N1600   0.0000
     5 C22        -23.4580    28.5340     0.2690 C.2          1 V1N1600   0.0000
     6 C4         -27.9030    19.7140     1.4210 C.ar         1 V1N1600   0.0000
     7 C9         -25.3450    23.1670     1.7600 C.2          1 V1N1600   0.0000
     8 C25        -23.8560    26.7470    -1.0200 C.ar         1 V1N1600   0.0000
     9 C21        -24.2500    27.4130     0.1690 C.2          1 V1N1600   0.0000
    10 C7         -26.0640    21.4100     0.7720 C.ar         1 V1N1600   0.0000
    11 C24        -22.8440    27.4900    -1.6080 C.ar         1 V1N1600   0.0000
    12 C6         -26.7950    21.5350     1.9340 C.ar         1 V1N1600   0.0000
    13 C2         -26.3070    20.3400    -0.0850 C.ar         1 V1N1600   0.0000
    14 C32        -25.8220    22.7730     4.8990 C.3          1 V1N1600   0.0000
    15 C30        -25.3080    24.0190     5.5550 C.3          1 V1N1600   0.0000
    16 C11        -26.7600    23.2570     3.8290 C.3          1 V1N1600   0.0000
    17 C13        -25.4040    25.1590     4.5210 C.3          1 V1N1600   0.0000
    18 C20        -25.2960    26.9950     1.1210 C.3          1 V1N1600   0.0000
    19 C19        -25.7420    28.0920     2.0740 C.3          1 V1N1600   0.0000
    20 N5         -27.7560    20.7000     2.3180 N.ar         1 V1N1600   0.0000
    21 N3         -27.2600    19.4690     0.2710 N.ar         1 V1N1600   0.0000
    22 N8         -25.1650    22.4360     0.6810 N.2          1 V1N1600   0.0000
    23 N23        -22.6220    28.5690    -0.8050 N.pl3        1 V1N1600   0.0000
    24 N10        -26.3330    22.6620     2.5590 N.pl3        1 V1N1600   0.0000
    25 N1         -25.5890    20.1550    -1.2740 N.pl3        1 V1N1600   0.0000
    26 O16        -26.4230    28.9700     4.7970 O.co2        1 V1N1600   0.0000
    27 O12        -26.5910    24.6950     3.8250 O.3          1 V1N1600   0.0000
    28 O33        -26.4960    21.9970     5.8770 O.3          1 V1N1600   0.0000
    29 O31        -24.0180    23.5470     5.9480 O.3          1 V1N1600   0.0000
    30 O14        -25.5940    26.5050     5.0910 O.3          1 V1N1600   0.0000
    31 O18        -24.7630    28.1800     3.0920 O.3          1 V1N1600   0.0000
    32 O17        -23.9780    28.5900     5.3880 O.co2        1 V1N1600  -1.0000
    33 P15        -25.2140    28.1120     4.6710 P.3          1 V1N1600   0.0000
    34 H1         -23.9391    24.4110    -3.2836 H            1 V1N1600   0.0000
    35 H2         -22.2349    25.7029    -4.2371 H            1 V1N1600   0.0000
    36 H3         -24.9989    25.0112    -1.2356 H            1 V1N1600   0.0000
    37 H4         -21.4691    27.7211    -3.1726 H            1 V1N1600   0.0000
    38 H5         -23.4910    29.2090     1.0061 H            1 V1N1600   0.0000
    39 H6         -28.6134    19.0482     1.6491 H            1 V1N1600   0.0000
    40 H7         -24.8220    23.9929     1.9705 H            1 V1N1600   0.0000
    41 H8         -25.0691    22.2526     4.4962 H            1 V1N1600   0.0000
    42 H9         -25.8571    24.2368     6.3619 H            1 V1N1600   0.0000
    43 H10        -27.7049    23.0080     4.0415 H            1 V1N1600   0.0000
    44 H11        -24.6122    25.1457     3.9104 H            1 V1N1600   0.0000
    45 H12        -24.9411    26.2333     1.6630 H            1 V1N1600   0.0000
    46 H13        -26.0923    26.6899     0.5987 H            1 V1N1600   0.0000
    47 H14        -26.6304    27.8615     2.4711 H            1 V1N1600   0.0000
    48 H15        -25.8103    28.9628     1.5872 H            1 V1N1600   0.0000
    49 H16        -21.9436    29.2826    -0.9795 H            1 V1N1600   0.0000
    50 H17        -25.7921    19.3739    -1.8644 H            1 V1N1600   0.0000
    51 H18        -24.8735    20.8041    -1.5322 H            1 V1N1600   0.0000
    52 H19        -25.8595    21.7595     6.6108 H            1 V1N1600   0.0000
    53 H20        -24.0626    22.5639     6.1255 H            1 V1N1600   0.0000
@<TRIPOS>BOND
     1    1    2      ar
     2    1    3      ar
     3    2    4      ar
     4    3    8      ar
     5    4   11      ar
     6    5    9       2
     7    5   23       1
     8    6   20      ar
     9    6   21      ar
    10    7   22       2
    11    7   24       1
    12    8    9       1
    13    8   11      ar
    14    9   18       1
    15   10   12      ar
    16   10   13      ar
    17   10   22       1
    18   11   23       1
    19   12   20      ar
    20   12   24       1
    21   13   21      ar
    22   13   25       1
    23   14   15       1
    24   14   16       1
    25   14   28       1
    26   15   17       1
    27   15   29       1
    28   16   24       1
    29   16   27       1
    30   17   27       1
    31   17   30       1
    32   18   19       1
    33   19   31       1
    34   26   33      ar
    35   30   33       1
    36   31   33       1
    37   32   33      ar
    38    1   34       1
    39    2   35       1
    40    3   36       1
    41    4   37       1
    42    5   38       1
    43    6   39       1
    44    7   40       1
    45   14   41       1
    46   15   42       1
    47   16   43       1
    48   17   44       1
    49   18   45       1
    50   18   46       1
    51   19   47       1
    52   19   48       1
    53   23   49       1
    54   25   50       1
    55   25   51       1
    56   29   53       1
    57   28   52       1
@<TRIPOS>SUBSTRUCTURE
     1 V1N1600     1 GROUP             4 B     V1N     0 **** V1N B1600
