@<TRIPOS>MOLECULE
2w2v_GTP_4_ligand
   44    46     1     0     0
SMALL
NO_CHARGES


@<TRIPOS>ATOM
     1 PG          10.8750    54.6760    26.7300 P.3          1 GTP500   0.0000
     2 O1G         11.3890    55.2000    25.4120 O.co2        1 GTP500   0.0000
     3 O2G         10.8730    53.1620    26.7220 O.co2        1 GTP500  -1.0000
     4 O3G          9.4700    55.1930    26.9650 O.co2        1 GTP500  -1.0000
     5 O3B         11.8510    55.2290    27.8890 O.3          1 GTP500   0.0000
     6 PB          11.3140    56.2690    28.9910 P.3          1 GTP500   0.0000
     7 O1B         10.2910    57.2230    28.4240 O.co2        1 GTP500   0.0000
     8 O2B         10.7480    55.4900    30.1540 O.co2        1 GTP500  -1.0000
     9 O3A         12.6530    57.0160    29.4760 O.3          1 GTP500   0.0000
    10 PA          13.7570    57.4950    28.4050 P.3          1 GTP500   0.0000
    11 O1A         14.8760    56.4880    28.3260 O.co2        1 GTP500   0.0000
    12 O2A         13.1230    57.6970    27.0530 O.co2        1 GTP500  -1.0000
    13 O5'         14.3080    58.9020    28.9560 O.3          1 GTP500   0.0000
    14 C5'         13.5030    59.7770    29.7070 C.3          1 GTP500   0.0000
    15 C4'         14.2260    61.1120    29.8190 C.3          1 GTP500   0.0000
    16 O4'         15.0330    61.0490    30.9740 O.3          1 GTP500   0.0000
    17 C3'         15.1560    61.3570    28.6420 C.3          1 GTP500   0.0000
    18 O3'         14.8440    62.5840    28.0250 O.3          1 GTP500   0.0000
    19 C2'         16.5600    61.4160    29.2140 C.3          1 GTP500   0.0000
    20 O2'         17.2360    62.5810    28.8040 O.3          1 GTP500   0.0000
    21 C1'         16.3810    61.3960    30.7240 C.3          1 GTP500   0.0000
    22 N9          17.2440    60.3680    31.3280 N.pl3        1 GTP500   0.0000
    23 C8          17.1790    59.0130    31.1360 C.2          1 GTP500   0.0000
    24 N7          18.1290    58.4250    31.9000 N.2          1 GTP500   0.0000
    25 C5          18.7790    59.3830    32.5980 C.2          1 GTP500   0.0000
    26 C6          19.8190    59.3390    33.5200 C.2          1 GTP500   0.0000
    27 O6          20.3240    58.2630    33.8360 O.2          1 GTP500   0.0000
    28 N1          20.2820    60.5120    34.0780 N.pl3        1 GTP500   0.0000
    29 C2          19.7120    61.7170    33.7230 C.2          1 GTP500   0.0000
    30 N2          20.1560    62.8510    34.2570 N.pl3        1 GTP500   0.0000
    31 N3          18.6810    61.7540    32.8080 N.2          1 GTP500   0.0000
    32 C4          18.2230    60.6060    32.2550 C.2          1 GTP500   0.0000
    33 H5'1        13.3504    59.3973    30.6194 H            1 GTP500   0.0000
    34 H5'2        12.6238    59.9058    29.2482 H            1 GTP500   0.0000
    35 H4'         13.5649    61.8580    29.8989 H            1 GTP500   0.0000
    36 H3'         15.0827    60.6095    27.9819 H            1 GTP500   0.0000
    37 H5          15.6409    63.1871    28.0605 H            1 GTP500   0.0000
    38 H2'         17.0751    60.6089    28.9255 H            1 GTP500   0.0000
    39 H7          18.0595    62.3274    28.2964 H            1 GTP500   0.0000
    40 H1'         16.5868    62.2948    31.1110 H            1 GTP500   0.0000
    41 H9          16.5378    58.5384    30.5330 H            1 GTP500   0.0000
    42 H10         21.0311    60.4891    34.7401 H            1 GTP500   0.0000
    43 H11         19.7402    63.7225    33.9971 H            1 GTP500   0.0000
    44 H12         20.9057    62.8323    34.9185 H            1 GTP500   0.0000
@<TRIPOS>BOND
     1    1    2      ar
     2    1    3      ar
     3    1    4      ar
     4    1    5       1
     5    5    6       1
     6    6    7      ar
     7    6    8      ar
     8    6    9       1
     9    9   10       1
    10   10   11      ar
    11   10   12      ar
    12   10   13       1
    13   13   14       1
    14   14   15       1
    15   15   16       1
    16   15   17       1
    17   16   21       1
    18   17   18       1
    19   17   19       1
    20   19   20       1
    21   19   21       1
    22   21   22       1
    23   22   23       1
    24   22   32       1
    25   23   24       2
    26   24   25       1
    27   25   26       1
    28   25   32       2
    29   26   27       2
    30   26   28       1
    31   28   29       1
    32   29   30       1
    33   29   31       2
    34   31   32       1
    35   30   44       1
    36   30   43       1
    37   28   42       1
    38   23   41       1
    39   14   33       1
    40   14   34       1
    41   15   35       1
    42   17   36       1
    43   18   37       1
    44   19   38       1
    45   20   39       1
    46   21   40       1
@<TRIPOS>SUBSTRUCTURE
     1 GTP500      1 GROUP             4 D     GTP     0 **** GTP D 500
