@<TRIPOS>MOLECULE
1nuq_NXX_2_ligand
   68    72     1     0     0
SMALL
NO_CHARGES


@<TRIPOS>ATOM
     1 O7N          4.4950   -10.1140    26.6810 O.co2        1 NXX402   0.0000
     2 C7N          3.7010   -10.6760    25.8960 C.2          1 NXX402   0.0000
     3 O8N          3.5460   -12.0150    25.8390 O.co2        1 NXX402  -1.0000
     4 C3N          2.9470    -9.7320    25.0270 C.ar         1 NXX402   0.0000
     5 C4N          3.0870    -8.2580    25.0440 C.ar         1 NXX402   0.0000
     6 C5N          2.2130    -7.4930    24.0640 C.ar         1 NXX402   0.0000
     7 C6N          1.3750    -8.1410    23.2500 C.ar         1 NXX402   0.0000
     8 C2N          2.0040   -10.3400    24.0990 C.ar         1 NXX402   0.0000
     9 N1N          1.2260    -9.5680    23.2230 N.ar         1 NXX402   1.0000
    10 C1M          0.3060   -10.2480    22.3330 C.3          1 NXX402   0.0000
    11 C2M         -1.1240   -10.1400    22.7910 C.3          1 NXX402   0.0000
    12 O2M         -1.4510   -11.0480    23.8650 O.3          1 NXX402   0.0000
    13 C3M         -1.8760   -10.4290    21.4960 C.3          1 NXX402   0.0000
    14 O3M         -1.9320   -11.8620    21.2220 O.3          1 NXX402   0.0000
    15 O4M          0.3430    -9.6720    21.0490 O.3          1 NXX402   0.0000
    16 C4M         -0.9710    -9.7440    20.4580 C.3          1 NXX402   0.0000
    17 C5M         -1.3950    -8.3440    20.0480 C.3          1 NXX402   0.0000
    18 O5M         -2.0500    -8.5200    18.7530 O.3          1 NXX402   0.0000
    19 PN          -2.6790    -7.2810    17.9310 P.3          1 NXX402   0.0000
    20 O1N         -3.4360    -6.4130    18.8610 O.co2        1 NXX402   0.0000
    21 O2N         -1.7180    -6.5360    17.0280 O.co2        1 NXX402  -1.0000
    22 O3A         -3.5940    -8.1840    17.0030 O.3          1 NXX402   0.0000
    23 PA          -4.1160    -7.8530    15.5500 P.3          1 NXX402   0.0000
    24 O1A         -4.0700    -6.4000    15.2310 O.co2        1 NXX402   0.0000
    25 O2A         -5.4720    -8.4660    15.4430 O.co2        1 NXX402  -1.0000
    26 O5B         -3.1340    -8.5700    14.5140 O.3          1 NXX402   0.0000
    27 C5B         -2.7920    -9.9790    14.6940 C.3          1 NXX402   0.0000
    28 C4B         -1.6890   -10.2150    13.6950 C.3          1 NXX402   0.0000
    29 C3B         -0.3790    -9.5220    14.0500 C.3          1 NXX402   0.0000
    30 O3B          0.6830   -10.5030    14.1040 O.3          1 NXX402   0.0000
    31 C2B         -0.2620    -8.5020    12.9260 C.3          1 NXX402   0.0000
    32 O2P          1.1180    -8.2470    12.6830 O.3          1 NXX402   0.0000
    33 C1B         -0.9360    -9.2270    11.7600 C.3          1 NXX402   0.0000
    34 O4B         -2.0290    -9.7440    12.3690 O.3          1 NXX402   0.0000
    35 N9A         -1.4250    -8.3250    10.7400 N.pl3        1 NXX402   0.0000
    36 C8A         -2.4620    -7.4360    10.8520 C.2          1 NXX402   0.0000
    37 N7A         -2.6900    -6.7420     9.7380 N.2          1 NXX402   0.0000
    38 C5A         -1.7160    -7.2220     8.8710 C.ar         1 NXX402   0.0000
    39 C4A         -0.9400    -8.2160     9.4650 C.ar         1 NXX402   0.0000
    40 C6A         -1.4220    -6.9010     7.5080 C.ar         1 NXX402   0.0000
    41 N6A         -2.0740    -5.9780     6.8000 N.pl3        1 NXX402   0.0000
    42 N1A         -0.3660    -7.5770     6.9000 N.ar         1 NXX402   0.0000
    43 C2A          0.3230    -8.5400     7.6340 C.ar         1 NXX402   0.0000
    44 N3A          0.1050    -8.8990     8.9050 N.ar         1 NXX402   0.0000
    45 H4N          3.7194    -7.7933    25.6638 H            1 NXX402   0.0000
    46 H5N          2.2657    -6.4950    24.0281 H            1 NXX402   0.0000
    47 H6N          0.8177    -7.5987    22.6213 H            1 NXX402   0.0000
    48 H2N          1.9082   -11.3353    24.0856 H            1 NXX402   0.0000
    49 H1M          0.5604   -11.2130    22.2695 H            1 NXX402   0.0000
    50 H2M         -1.3101    -9.2013    23.0811 H            1 NXX402   0.0000
    51 H7          -0.8872   -11.8704    23.7895 H            1 NXX402   0.0000
    52 H3M         -2.7901   -10.0237    21.5069 H            1 NXX402   0.0000
    53 H9          -2.8868   -12.1567    21.1822 H            1 NXX402   0.0000
    54 H4M         -0.9256   -10.3189    19.6410 H            1 NXX402   0.0000
    55 H5M1        -0.5987    -7.7452    19.9621 H            1 NXX402   0.0000
    56 H5M2        -2.0316    -7.9584    20.7158 H            1 NXX402   0.0000
    57 H5B1        -3.5794   -10.5639    14.4993 H            1 NXX402   0.0000
    58 H5B2        -2.4712   -10.1510    15.6254 H            1 NXX402   0.0000
    59 H4B         -1.5186   -11.1990    13.6435 H            1 NXX402   0.0000
    60 H3B         -0.4631    -9.0562    14.9309 H            1 NXX402   0.0000
    61 H17          0.3069   -11.3864    14.3836 H            1 NXX402   0.0000
    62 H2B         -0.7485    -7.6586    13.1541 H            1 NXX402   0.0000
    63 H2P          1.2307    -7.3098    12.3531 H            1 NXX402   0.0000
    64 H1B         -0.3503    -9.9410    11.3765 H            1 NXX402   0.0000
    65 H8A         -2.9961    -7.3195    11.6894 H            1 NXX402   0.0000
    66 H6A1        -1.8169    -5.8031     5.8496 H            1 NXX402   0.0000
    67 H6A2        -2.8200    -5.4608     7.2195 H            1 NXX402   0.0000
    68 H2A          1.0628    -9.0160     7.1584 H            1 NXX402   0.0000
@<TRIPOS>BOND
     1    1    2      ar
     2    2    3      ar
     3    2    4       1
     4    4    5      ar
     5    4    8      ar
     6    5    6      ar
     7    6    7      ar
     8    7    9      ar
     9    8    9      ar
    10    9   10       1
    11   10   11       1
    12   10   15       1
    13   11   12       1
    14   11   13       1
    15   13   14       1
    16   13   16       1
    17   15   16       1
    18   16   17       1
    19   17   18       1
    20   18   19       1
    21   19   20      ar
    22   19   21      ar
    23   19   22       1
    24   22   23       1
    25   23   24      ar
    26   23   25      ar
    27   23   26       1
    28   26   27       1
    29   27   28       1
    30   28   29       1
    31   28   34       1
    32   29   30       1
    33   29   31       1
    34   31   32       1
    35   31   33       1
    36   33   34       1
    37   33   35       1
    38   35   36       1
    39   35   39       1
    40   36   37       2
    41   37   38       1
    42   38   39      ar
    43   38   40      ar
    44   39   44      ar
    45   40   41       1
    46   40   42      ar
    47   42   43      ar
    48   43   44      ar
    49   43   68       1
    50    5   45       1
    51    6   46       1
    52    7   47       1
    53    8   48       1
    54   10   49       1
    55   11   50       1
    56   12   51       1
    57   13   52       1
    58   14   53       1
    59   16   54       1
    60   17   55       1
    61   17   56       1
    62   41   67       1
    63   41   66       1
    64   27   57       1
    65   27   58       1
    66   28   59       1
    67   29   60       1
    68   30   61       1
    69   31   62       1
    70   32   63       1
    71   33   64       1
    72   36   65       1
@<TRIPOS>SUBSTRUCTURE
     1 NXX402      1 GROUP             4 B     NXX     0 **** NXX B 402
