@<TRIPOS>MOLECULE
4q5j_ANP_1_ligand
   44    46     1     0     0
SMALL
NO_CHARGES


@<TRIPOS>ATOM
     1 PG         -17.2740     5.6730   116.2810 P.3          1 ANP1201   0.0000
     2 O1G        -16.3150     4.4450   116.0090 O.co2        1 ANP1201   0.0000
     3 O2G        -16.6230     6.5480   117.4220 O.co2        1 ANP1201  -1.0000
     4 O3G        -18.6300     5.2120   116.7210 O.co2        1 ANP1201  -1.0000
     5 PB         -18.9060     6.4850   114.1310 P.3          1 ANP1201   0.0000
     6 O1B        -19.1200     5.0560   113.7930 O.co2        1 ANP1201   0.0000
     7 O2B        -20.0340     6.8570   115.1430 O.co2        1 ANP1201  -1.0000
     8 N3B        -17.4060     6.6190   114.8760 N.3          1 ANP1201   0.0000
     9 PA         -18.3080     8.8430   112.6330 P.3          1 ANP1201   0.0000
    10 O1A        -18.3340     9.2760   111.1610 O.co2        1 ANP1201   0.0000
    11 O2A        -16.8950     8.7700   113.1700 O.co2        1 ANP1201  -1.0000
    12 O3A        -18.9680     7.3810   112.8230 O.3          1 ANP1201   0.0000
    13 O5'        -19.3390     9.7670   113.5170 O.3          1 ANP1201   0.0000
    14 C5'        -20.6970     9.2140   113.7170 C.3          1 ANP1201   0.0000
    15 C4'        -21.6360    10.1450   114.4290 C.3          1 ANP1201   0.0000
    16 O4'        -21.4130    11.4870   113.9520 O.3          1 ANP1201   0.0000
    17 C3'        -23.1180     9.8010   114.2280 C.3          1 ANP1201   0.0000
    18 O3'        -23.7430     9.3570   115.4260 O.3          1 ANP1201   0.0000
    19 C2'        -23.7870    11.1260   113.8330 C.3          1 ANP1201   0.0000
    20 O2'        -24.5390    11.6590   114.9140 O.3          1 ANP1201   0.0000
    21 C1'        -22.6290    12.0860   113.5360 C.3          1 ANP1201   0.0000
    22 N9         -22.4960    12.5080   112.1390 N.pl3        1 ANP1201   0.0000
    23 C8         -21.4100    12.2760   111.3360 C.2          1 ANP1201   0.0000
    24 N7         -21.5120    12.8000   110.1370 N.2          1 ANP1201   0.0000
    25 C5         -22.7470    13.4330   110.1510 C.ar         1 ANP1201   0.0000
    26 C6         -23.4500    14.1760   109.1770 C.ar         1 ANP1201   0.0000
    27 N6         -22.9830    14.4000   107.9400 N.pl3        1 ANP1201   0.0000
    28 N1         -24.6720    14.6720   109.5190 N.ar         1 ANP1201   0.0000
    29 C2         -25.1420    14.4330   110.7490 C.ar         1 ANP1201   0.0000
    30 N3         -24.5750    13.7410   111.7440 N.ar         1 ANP1201   0.0000
    31 C4         -23.3670    13.2630   111.3840 C.ar         1 ANP1201   0.0000
    32 H3B        -16.7018     6.3276   114.2286 H            1 ANP1201   0.0000
    33 H5'1       -20.6188     8.3744   114.2545 H            1 ANP1201   0.0000
    34 H5'2       -21.0851     9.0008   112.8204 H            1 ANP1201   0.0000
    35 H4'        -21.4320    10.1165   115.4076 H            1 ANP1201   0.0000
    36 H3'        -23.2263     9.1219   113.5020 H            1 ANP1201   0.0000
    37 H6         -24.4770     8.7161   115.2013 H            1 ANP1201   0.0000
    38 H2'        -24.3638    11.0052   113.0251 H            1 ANP1201   0.0000
    39 H8         -24.8807    10.9111   115.4831 H            1 ANP1201   0.0000
    40 H1'        -22.7669    12.9076   114.0891 H            1 ANP1201   0.0000
    41 H10        -20.6116    11.7543   111.6366 H            1 ANP1201   0.0000
    42 H11        -23.5242    14.9339   107.2903 H            1 ANP1201   0.0000
    43 H12        -22.0936    14.0332   107.6673 H            1 ANP1201   0.0000
    44 H13        -26.0392    14.8250   110.9522 H            1 ANP1201   0.0000
@<TRIPOS>BOND
     1    1    2      ar
     2    1    3      ar
     3    1    4      ar
     4    1    8       1
     5    5    6      ar
     6    5    7      ar
     7    5    8       1
     8    5   12       1
     9    9   10      ar
    10    9   11      ar
    11    9   12       1
    12    9   13       1
    13   13   14       1
    14   14   15       1
    15   15   16       1
    16   15   17       1
    17   16   21       1
    18   17   18       1
    19   17   19       1
    20   19   20       1
    21   19   21       1
    22   21   22       1
    23   22   23       1
    24   22   31       1
    25   23   24       2
    26   24   25       1
    27   25   26      ar
    28   25   31      ar
    29   26   27       1
    30   26   28      ar
    31   28   29      ar
    32   29   30      ar
    33   30   31      ar
    34   29   44       1
    35   27   43       1
    36   27   42       1
    37    8   32       1
    38   23   41       1
    39   14   33       1
    40   14   34       1
    41   15   35       1
    42   17   36       1
    43   18   37       1
    44   19   38       1
    45   20   39       1
    46   21   40       1
@<TRIPOS>SUBSTRUCTURE
     1 ANP1201     1 GROUP             4 A     ANP     0 **** ANP A1201
