@<TRIPOS>MOLECULE
3bxo_UPP_2_ligand
   47    49     1     0     0
SMALL
NO_CHARGES


@<TRIPOS>ATOM
     1 N1           5.1960     2.1580    57.4670 N.pl3        1 UPP239   0.0000
     2 C2           4.2360     2.1180    58.4120 C.2          1 UPP239   0.0000
     3 N3           3.6630     3.2520    58.7980 N.pl3        1 UPP239   0.0000
     4 C4           4.0180     4.4270    58.2390 C.2          1 UPP239   0.0000
     5 C5           5.0170     4.4670    57.2360 C.2          1 UPP239   0.0000
     6 C6           5.6030     3.3170    56.8580 C.2          1 UPP239   0.0000
     7 O2           3.8880     1.0740    58.9610 O.2          1 UPP239   0.0000
     8 O4           3.4750     5.4590    58.5980 O.2          1 UPP239   0.0000
     9 C1B          5.9000     0.9550    57.0810 C.3          1 UPP239   0.0000
    10 C2B          5.4860     0.5440    55.6890 C.3          1 UPP239   0.0000
    11 O2'          4.3420    -0.2280    55.9080 O.3          1 UPP239   0.0000
    12 C3B          6.6890    -0.3420    55.3120 C.3          1 UPP239   0.0000
    13 C4B          7.8690     0.4390    55.9230 C.3          1 UPP239   0.0000
    14 O4'          7.3100     1.2980    56.9490 O.3          1 UPP239   0.0000
    15 O3'          6.5910    -1.6000    55.9770 O.3          1 UPP239   0.0000
    16 C5B          8.6920     1.2300    54.9000 C.3          1 UPP239   0.0000
    17 O5'          9.0400     0.3350    53.8440 O.3          1 UPP239   0.0000
    18 PA          10.6360     0.3670    53.6550 P.3          1 UPP239   0.0000
    19 O1A         10.9940    -0.7930    52.6280 O.co2        1 UPP239   0.0000
    20 O2A         11.0550     1.8630    53.1980 O.co2        1 UPP239  -1.0000
    21 O3A         11.2430     0.1540    55.1460 O.3          1 UPP239   0.0000
    22 PB          12.8210    -0.0290    55.3670 P.3          1 UPP239   0.0000
    23 O1B         13.7580     0.4760    54.1720 O.co2        1 UPP239   0.0000
    24 O2B         13.1310     0.8130    56.6750 O.co2        1 UPP239  -1.0000
    25 O3B         12.9870    -1.6220    55.5650 O.3          1 UPP239   0.0000
    26 C1'         13.1760    -2.0700    56.8370 C.ar         1 UPP239   0.0000
    27 C2'         14.1700    -1.5360    57.6610 C.ar         1 UPP239   0.0000
    28 C3'         14.3730    -2.0370    58.9320 C.ar         1 UPP239   0.0000
    29 C4'         13.6230    -3.1070    59.3910 C.ar         1 UPP239   0.0000
    30 C5'         12.6550    -3.6630    58.5570 C.ar         1 UPP239   0.0000
    31 C6'         12.4280    -3.1550    57.2830 C.ar         1 UPP239   0.0000
    32 H1           2.9613     3.2346    59.5102 H            1 UPP239   0.0000
    33 H2           5.2820     5.3351    56.8162 H            1 UPP239   0.0000
    34 H3           6.3136     3.3075    56.1545 H            1 UPP239   0.0000
    35 H1B          5.7596     0.2170    57.7411 H            1 UPP239   0.0000
    36 H2B          5.3408     1.3136    55.0672 H            1 UPP239   0.0000
    37 H2'          3.5643     0.1872    55.4360 H            1 UPP239   0.0000
    38 H3B          6.7815    -0.4474    54.3219 H            1 UPP239   0.0000
    39 H4B          8.4776    -0.2182    56.3677 H            1 UPP239   0.0000
    40 H3'          6.5510    -2.3335    55.2985 H            1 UPP239   0.0000
    41 H5B1         9.5204     1.5874    55.3314 H            1 UPP239   0.0000
    42 H5B2         8.1499     1.9890    54.5394 H            1 UPP239   0.0000
    43 H12         14.7394    -0.7846    57.3276 H            1 UPP239   0.0000
    44 H13         15.0654    -1.6248    59.5242 H            1 UPP239   0.0000
    45 H4'         13.7741    -3.4755    60.3083 H            1 UPP239   0.0000
    46 H5'         12.1148    -4.4400    58.8801 H            1 UPP239   0.0000
    47 H6'         11.7333    -3.5657    56.6925 H            1 UPP239   0.0000
@<TRIPOS>BOND
     1    1    2       1
     2    1    6       1
     3    1    9       1
     4    2    3       1
     5    2    7       2
     6    3    4       1
     7    4    5       1
     8    4    8       2
     9    5    6       2
    10    9   10       1
    11    9   14       1
    12   10   11       1
    13   10   12       1
    14   12   13       1
    15   12   15       1
    16   13   14       1
    17   13   16       1
    18   16   17       1
    19   17   18       1
    20   18   19      ar
    21   18   20      ar
    22   18   21       1
    23   21   22       1
    24   22   23      ar
    25   22   24      ar
    26   22   25       1
    27   25   26       1
    28   26   27      ar
    29   26   31      ar
    30   27   28      ar
    31   28   29      ar
    32   29   30      ar
    33   30   31      ar
    34    3   32       1
    35    5   33       1
    36    6   34       1
    37    9   35       1
    38   10   36       1
    39   11   37       1
    40   12   38       1
    41   13   39       1
    42   15   40       1
    43   16   41       1
    44   16   42       1
    45   31   47       1
    46   30   46       1
    47   27   43       1
    48   28   44       1
    49   29   45       1
@<TRIPOS>SUBSTRUCTURE
     1 UPP239      1 GROUP             4 B     UPP     0 **** UPP B 239
