@<TRIPOS>MOLECULE
2rcy_NAP_5_ligand
   73    77     1     0     0
SMALL
NO_CHARGES


@<TRIPOS>ATOM
     1 PA          51.8570    12.6110   -22.1030 P.3          1 NAP264   0.0000
     2 O1A         51.0890    12.5960   -20.8020 O.co2        1 NAP264   0.0000
     3 O2A         52.8110    11.4790   -22.4080 O.co2        1 NAP264  -1.0000
     4 O5B         50.7890    12.7700   -23.3040 O.3          1 NAP264   0.0000
     5 C5B         51.0240    12.2740   -24.6240 C.3          1 NAP264   0.0000
     6 C4B         49.7440    11.6490   -25.1690 C.3          1 NAP264   0.0000
     7 O4B         49.8150    11.4790   -26.5910 O.3          1 NAP264   0.0000
     8 C3B         49.4980    10.2710   -24.5700 C.3          1 NAP264   0.0000
     9 O3B         48.2660    10.2710   -23.8420 O.3          1 NAP264   0.0000
    10 C2B         49.4180     9.3150   -25.7460 C.3          1 NAP264   0.0000
    11 O2B         48.3230     8.4050   -25.6190 O.3          1 NAP264   0.0000
    12 C1B         49.2470    10.2190   -26.9620 C.3          1 NAP264   0.0000
    13 N9A         49.8910     9.6610   -28.1870 N.pl3        1 NAP264   0.0000
    14 C8A         50.9180     8.7970   -28.2300 C.2          1 NAP264   0.0000
    15 N7A         51.2190     8.5180   -29.5190 N.2          1 NAP264   0.0000
    16 C5A         50.3680     9.2190   -30.2920 C.ar         1 NAP264   0.0000
    17 C6A         50.2010     9.3340   -31.6690 C.ar         1 NAP264   0.0000
    18 N6A         51.0020     8.6460   -32.5180 N.pl3        1 NAP264   0.0000
    19 N1A         49.2280    10.1400   -32.1520 N.ar         1 NAP264   0.0000
    20 C2A         48.4260    10.8260   -31.3190 C.ar         1 NAP264   0.0000
    21 N3A         48.5690    10.7300   -29.9860 N.ar         1 NAP264   0.0000
    22 C4A         49.5340     9.9380   -29.4480 C.ar         1 NAP264   0.0000
    23 O3          52.6760    13.9970   -22.2000 O.3          1 NAP264   0.0000
    24 PN          52.0410    15.4000   -21.7200 P.3          1 NAP264   0.0000
    25 O1N         52.5980    15.7210   -20.3530 O.co2        1 NAP264   0.0000
    26 O2N         50.5450    15.3620   -21.9270 O.co2        1 NAP264  -1.0000
    27 O5D         52.6650    16.4590   -22.7580 O.3          1 NAP264   0.0000
    28 C5D         52.3100    16.4520   -24.1400 C.3          1 NAP264   0.0000
    29 C4D         52.8700    17.6980   -24.8170 C.3          1 NAP264   0.0000
    30 O4D         52.4230    18.8790   -24.1400 O.3          1 NAP264   0.0000
    31 C3D         54.3910    17.7150   -24.8000 C.3          1 NAP264   0.0000
    32 O3D         54.8580    18.0160   -26.1170 O.3          1 NAP264   0.0000
    33 C2D         54.7720    18.8190   -23.8280 C.3          1 NAP264   0.0000
    34 O2D         55.9250    19.5460   -24.2610 O.3          1 NAP264   0.0000
    35 C1D         53.5390    19.7110   -23.7920 C.3          1 NAP264   0.0000
    36 N1N         53.3470    20.3610   -22.4890 N.ar         1 NAP264   1.0000
    37 C2N         53.0490    19.6440   -21.3910 C.ar         1 NAP264   0.0000
    38 C3N         52.8640    20.2720   -20.1590 C.ar         1 NAP264   0.0000
    39 C7N         52.5210    19.4700   -18.9390 C.2          1 NAP264   0.0000
    40 O7N         52.2703    20.0735   -17.7777 O.2          1 NAP264   0.0000
    41 N7N         52.4559    18.2172   -19.0215 N.am         1 NAP264   0.0000
    42 C4N         52.9930    21.6560   -20.0670 C.ar         1 NAP264   0.0000
    43 C5N         53.3010    22.3760   -21.2150 C.ar         1 NAP264   0.0000
    44 C6N         53.4730    21.6960   -22.4200 C.ar         1 NAP264   0.0000
    45 P2B         48.4400     7.0460   -24.7520 P.3          1 NAP264   0.0000
    46 O1X         47.2710     6.2170   -25.2400 O.co2        1 NAP264   0.0000
    47 O2X         49.7970     6.4730   -25.0920 O.co2        1 NAP264  -1.0000
    48 O3X         48.3100     7.5020   -23.3160 O.co2        1 NAP264  -1.0000
    49 H5B1        51.7465    11.5832   -24.5966 H            1 NAP264   0.0000
    50 H5B2        51.3058    13.0277   -25.2178 H            1 NAP264   0.0000
    51 H4B         48.9707    12.2437   -24.9492 H            1 NAP264   0.0000
    52 H3B         50.2548    10.0158   -23.9682 H            1 NAP264   0.0000
    53 H5          48.1098     9.3639   -23.4511 H            1 NAP264   0.0000
    54 H2B         50.2739     8.8038   -25.8237 H            1 NAP264   0.0000
    55 H1B         48.2705    10.3435   -27.1379 H            1 NAP264   0.0000
    56 H8A         51.3877     8.4184   -27.4325 H            1 NAP264   0.0000
    57 H6A1        50.8759     8.7338   -33.5061 H            1 NAP264   0.0000
    58 H6A2        51.7193     8.0504   -32.1565 H            1 NAP264   0.0000
    59 H2A         47.7127    11.4163   -31.6967 H            1 NAP264   0.0000
    60 H5D1        51.3139    16.4445   -24.2279 H            1 NAP264   0.0000
    61 H5D2        52.6894    15.6365   -24.5771 H            1 NAP264   0.0000
    62 H4D         52.5534    17.7251   -25.7652 H            1 NAP264   0.0000
    63 H3D         54.7500    16.8342   -24.4914 H            1 NAP264   0.0000
    64 H16         54.5323    17.3173   -26.7540 H            1 NAP264   0.0000
    65 H2D         54.9365    18.4308   -22.9212 H            1 NAP264   0.0000
    66 H18         56.1389    20.2597   -23.5940 H            1 NAP264   0.0000
    67 H1D         53.6380    20.4199   -24.4903 H            1 NAP264   0.0000
    68 H2N         52.9591    18.6503   -21.4583 H            1 NAP264   0.0000
    69 H7N1        52.2045    17.6757   -18.2192 H            1 NAP264   0.0000
    70 H7N2        52.6554    17.7622   -19.8893 H            1 NAP264   0.0000
    71 H4N         52.8664    22.1225   -19.1916 H            1 NAP264   0.0000
    72 H5N         53.3982    23.3706   -21.1773 H            1 NAP264   0.0000
    73 H6N         53.6942    22.2118   -23.2477 H            1 NAP264   0.0000
@<TRIPOS>BOND
     1    1    2      ar
     2    1    3      ar
     3    1    4       1
     4    1   23       1
     5    4    5       1
     6    5    6       1
     7    6    7       1
     8    6    8       1
     9    7   12       1
    10    8    9       1
    11    8   10       1
    12   10   11       1
    13   10   12       1
    14   11   45       1
    15   12   13       1
    16   13   14       1
    17   13   22       1
    18   14   15       2
    19   15   16       1
    20   16   17      ar
    21   16   22      ar
    22   17   18       1
    23   17   19      ar
    24   19   20      ar
    25   20   21      ar
    26   21   22      ar
    27   23   24       1
    28   24   25      ar
    29   24   26      ar
    30   24   27       1
    31   27   28       1
    32   28   29       1
    33   29   30       1
    34   29   31       1
    35   30   35       1
    36   31   32       1
    37   31   33       1
    38   33   34       1
    39   33   35       1
    40   35   36       1
    41   36   37      ar
    42   36   44      ar
    43   37   38      ar
    44   38   39       1
    45   38   42      ar
    46   39   40       2
    47   39   41      am
    48   42   43      ar
    49   43   44      ar
    50   45   46      ar
    51   45   47      ar
    52   45   48      ar
    53   43   72       1
    54    5   49       1
    55    5   50       1
    56    6   51       1
    57    8   52       1
    58    9   53       1
    59   10   54       1
    60   12   55       1
    61   14   56       1
    62   18   57       1
    63   18   58       1
    64   20   59       1
    65   44   73       1
    66   28   60       1
    67   28   61       1
    68   29   62       1
    69   31   63       1
    70   32   64       1
    71   33   65       1
    72   34   66       1
    73   35   67       1
    74   37   68       1
    75   41   69       1
    76   41   70       1
    77   42   71       1
@<TRIPOS>SUBSTRUCTURE
     1 NAP264      1 GROUP             4 E     NAP     0 **** NAP E 264
