@<TRIPOS>MOLECULE
3zuk_RDF_3_ligand
   69    71     1     0     0
SMALL
NO_CHARGES


@<TRIPOS>ATOM
     1 C1          97.7330    91.6350    35.7390 C.3          1 RDF1665   0.0000
     2 O1          97.6560    91.3680    37.1340 O.3          1 RDF1665   0.0000
     3 C2          99.0220    92.3880    35.4900 C.3          1 RDF1665   0.0000
     4 O2          98.9900    92.7630    34.1440 O.3          1 RDF1665   0.0000
     5 C3         100.1800    91.4950    35.7720 C.3          1 RDF1665   0.0000
     6 O3         101.4390    92.1590    35.5530 O.3          1 RDF1665   0.0000
     7 C4         100.1490    90.2830    35.0240 C.3          1 RDF1665   0.0000
     8 O4         101.2110    89.4000    35.4120 O.3          1 RDF1665   0.0000
     9 C5          98.8860    89.5280    35.3410 C.3          1 RDF1665   0.0000
    10 O5          97.7160    90.4100    35.0410 O.3          1 RDF1665   0.0000
    11 C6          98.8590    88.2170    34.6730 C.3          1 RDF1665   0.0000
    12 P           96.3040    91.2340    37.9970 P.3          1 RDF1665   0.0000
    13 O1P         95.6560    90.1000    37.1800 O.co2        1 RDF1665   0.0000
    14 O2P         96.5150    91.0310    39.5180 O.co2        1 RDF1665  -1.0000
    15 N           95.5130    92.5730    37.3890 N.3          1 RDF1665   0.0000
    16 CA          94.0450    92.5500    37.4580 C.3          1 RDF1665   0.0000
    17 C           93.5060    92.3050    36.0860 C.2          1 RDF1665   0.0000
    18 O           92.5410    91.5710    35.9400 O.2          1 RDF1665   0.0000
    19 CB          93.4900    93.9130    37.9000 C.3          1 RDF1665   0.0000
    20 CG          91.9510    94.2090    37.7860 C.3          1 RDF1665   0.0000
    21 CD1         91.6550    95.7210    37.9620 C.3          1 RDF1665   0.0000
    22 CD2         91.0510    93.3000    38.6330 C.3          1 RDF1665   0.0000
    23 N1          94.1770    92.9560    34.9560 N.am         1 RDF1665   0.0000
    24 CA1         93.6130    92.6960    33.5830 C.3          1 RDF1665   0.0000
    25 C7          94.7910    92.8260    32.6350 C.2          1 RDF1665   0.0000
    26 O6          95.8980    93.2620    33.0480 O.co2        1 RDF1665   0.0000
    27 CB1         92.4190    93.5520    33.1240 C.3          1 RDF1665   0.0000
    28 CG1         92.8090    94.8260    32.4170 C.2          1 RDF1665   0.0000
    29 CD11        93.4920    95.8100    33.0810 C.2          1 RDF1665   0.0000
    30 CD21        92.6130    95.1440    31.1140 C.ar         1 RDF1665   0.0000
    31 NE1         93.7330    96.8450    32.1470 N.pl3        1 RDF1665   0.0000
    32 CE2         93.1700    96.3940    30.9140 C.ar         1 RDF1665   0.0000
    33 CE3         91.9850    94.5100    30.0050 C.ar         1 RDF1665   0.0000
    34 CZ2         93.1100    97.0160    29.6340 C.ar         1 RDF1665   0.0000
    35 CZ3         91.9250    95.1200    28.7440 C.ar         1 RDF1665   0.0000
    36 CH2         92.4930    96.3800    28.5530 C.ar         1 RDF1665   0.0000
    37 OXT         94.6630    92.5350    31.4480 O.co2        1 RDF1665  -1.0000
    38 H1          96.9539    92.1955    35.4581 H            1 RDF1665   0.0000
    39 H2          99.0640    93.1999    36.0723 H            1 RDF1665   0.0000
    40 H3          99.8230    93.2683    33.9189 H            1 RDF1665   0.0000
    41 H4         100.1375    91.2487    36.7403 H            1 RDF1665   0.0000
    42 H5         101.9559    91.6702    34.8502 H            1 RDF1665   0.0000
    43 H6         100.2002    90.4782    34.0446 H            1 RDF1665   0.0000
    44 H7         100.8973    88.8071    36.1537 H            1 RDF1665   0.0000
    45 H8          98.8828    89.3578    36.3264 H            1 RDF1665   0.0000
    46 H9          98.0094    87.7427    34.9038 H            1 RDF1665   0.0000
    47 H10         98.9102    88.3464    33.6827 H            1 RDF1665   0.0000
    48 H11         99.6391    87.6711    34.9786 H            1 RDF1665   0.0000
    49 H12         95.8294    93.3719    37.9004 H            1 RDF1665   0.0000
    50 HA          93.7390    91.8323    38.0835 H            1 RDF1665   0.0000
    51 HB1         93.9587    94.6067    37.3530 H            1 RDF1665   0.0000
    52 HB2         93.7352    94.0260    38.8629 H            1 RDF1665   0.0000
    53 HG          91.7134    94.0034    36.8367 H            1 RDF1665   0.0000
    54 HD11        90.6706    95.8791    37.8848 H            1 RDF1665   0.0000
    55 HD12        91.9711    96.0199    38.8624 H            1 RDF1665   0.0000
    56 HD13        92.1325    96.2390    37.2522 H            1 RDF1665   0.0000
    57 HD21        90.0946    93.5592    38.4986 H            1 RDF1665   0.0000
    58 HD22        91.1809    92.3486    38.3538 H            1 RDF1665   0.0000
    59 HD23        91.2909    93.3997    39.5987 H            1 RDF1665   0.0000
    60 H23         94.9731    93.5460    35.0906 H            1 RDF1665   0.0000
    61 HA1         93.3185    91.7406    33.5600 H            1 RDF1665   0.0000
    62 HB11        91.8776    93.7931    33.9295 H            1 RDF1665   0.0000
    63 HB12        91.8619    93.0045    32.4996 H            1 RDF1665   0.0000
    64 H27         93.7677    95.7990    34.0422 H            1 RDF1665   0.0000
    65 HE1         94.2007    97.7127    32.3152 H            1 RDF1665   0.0000
    66 HE3         91.5759    93.6059    30.1285 H            1 RDF1665   0.0000
    67 HZ2         93.5154    97.9213    29.5068 H            1 RDF1665   0.0000
    68 HZ3         91.4757    94.6527    27.9826 H            1 RDF1665   0.0000
    69 HH2         92.4592    96.8214    27.6563 H            1 RDF1665   0.0000
@<TRIPOS>BOND
     1    1    2       1
     2    1    3       1
     3    1   10       1
     4    2   12       1
     5    3    4       1
     6    3    5       1
     7    5    6       1
     8    5    7       1
     9    7    8       1
    10    7    9       1
    11    9   10       1
    12    9   11       1
    13   12   13      ar
    14   12   14      ar
    15   12   15       1
    16   15   16       1
    17   16   17       1
    18   16   19       1
    19   17   18       2
    20   17   23      am
    21   19   20       1
    22   20   21       1
    23   20   22       1
    24   23   24       1
    25   24   25       1
    26   24   27       1
    27   25   26      ar
    28   25   37      ar
    29   27   28       1
    30   28   29       2
    31   28   30       1
    32   29   31       1
    33   30   32      ar
    34   30   33      ar
    35   31   32       1
    36   32   34      ar
    37   33   35      ar
    38   34   36      ar
    39   35   36      ar
    40    1   38       1
    41    3   39       1
    42    4   40       1
    43    5   41       1
    44    6   42       1
    45    7   43       1
    46    8   44       1
    47    9   45       1
    48   11   46       1
    49   11   47       1
    50   11   48       1
    51   36   69       1
    52   15   49       1
    53   16   50       1
    54   19   51       1
    55   19   52       1
    56   20   53       1
    57   21   54       1
    58   21   55       1
    59   21   56       1
    60   22   57       1
    61   22   58       1
    62   22   59       1
    63   23   60       1
    64   24   61       1
    65   35   68       1
    66   27   62       1
    67   27   63       1
    68   29   64       1
    69   31   65       1
    70   33   66       1
    71   34   67       1
@<TRIPOS>SUBSTRUCTURE
     1 RDF1665     1 GROUP             4 B     RDF     0 **** RDF B1665
