@<TRIPOS>MOLECULE
2uxu_NAR_2_ligand
   32    34     1     0     0
SMALL
NO_CHARGES


@<TRIPOS>ATOM
     1 C1           1.6750    37.4570    11.6730 C.ar         1 NAR1211   0.0000
     2 C2           1.3840    38.7830    11.3970 C.ar         1 NAR1211   0.0000
     3 C3           0.3620    39.4460    12.0820 C.ar         1 NAR1211   0.0000
     4 C4          -0.3750    38.7690    13.0650 C.ar         1 NAR1211   0.0000
     5 C5          -0.0780    37.4240    13.3400 C.ar         1 NAR1211   0.0000
     6 C6           0.9520    36.7770    12.6440 C.ar         1 NAR1211   0.0000
     7 C7          -0.7680    36.6840    14.2990 C.2          1 NAR1211   0.0000
     8 C8           0.0000    35.6320    15.2010 C.3          1 NAR1211   0.0000
     9 C9           1.3280    35.2550    14.3950 C.3          1 NAR1211   0.0000
    10 O1           1.2400    35.4590    12.9080 O.3          1 NAR1211   0.0000
    11 O2          -2.0700    36.8600    14.3920 O.2          1 NAR1211   0.0000
    12 C10          1.8380    33.8290    14.6510 C.ar         1 NAR1211   0.0000
    13 C11          0.8850    32.7810    15.3190 C.ar         1 NAR1211   0.0000
    14 C12          1.5860    31.5710    15.4640 C.ar         1 NAR1211   0.0000
    15 C13          2.9460    31.2970    15.0720 C.ar         1 NAR1211   0.0000
    16 C14          3.7470    32.2670    14.4850 C.ar         1 NAR1211   0.0000
    17 C15          3.2020    33.5230    14.2670 C.ar         1 NAR1211   0.0000
    18 O3           3.5000    30.0820    15.2570 O.3          1 NAR1211   0.0000
    19 O4           2.1100    39.4230    10.4580 O.3          1 NAR1211   0.0000
    20 O5          -1.3720    39.4200    13.7420 O.3          1 NAR1211   0.0000
    21 H1           2.4048    36.9902    11.1736 H            1 NAR1211   0.0000
    22 H2           0.1564    40.4018    11.8716 H            1 NAR1211   0.0000
    23 H3          -0.5636    34.8184    15.3437 H            1 NAR1211   0.0000
    24 H4           0.2324    36.0358    16.0858 H            1 NAR1211   0.0000
    25 H5           2.0423    35.8733    14.7229 H            1 NAR1211   0.0000
    26 H6          -0.0619    32.9448    15.5956 H            1 NAR1211   0.0000
    27 H7           1.0850    30.8156    15.8865 H            1 NAR1211   0.0000
    28 H8           4.6917    32.0652    14.2264 H            1 NAR1211   0.0000
    29 H9           3.7608    34.2318    13.8364 H            1 NAR1211   0.0000
    30 H10          4.4455    29.9157    14.9769 H            1 NAR1211   0.0000
    31 H11          1.9168    40.3803    10.2431 H            1 NAR1211   0.0000
    32 H12         -1.8978    38.9380    14.4429 H            1 NAR1211   0.0000
@<TRIPOS>BOND
     1    1    2      ar
     2    1    6      ar
     3    2    3      ar
     4    2   19       1
     5    3    4      ar
     6    4    5      ar
     7    4   20       1
     8    5    6      ar
     9    5    7       1
    10    6   10       1
    11    7    8       1
    12    7   11       2
    13    8    9       1
    14    9   10       1
    15    9   12       1
    16   12   13      ar
    17   12   17      ar
    18   13   14      ar
    19   14   15      ar
    20   15   16      ar
    21   15   18       1
    22   16   17      ar
    23    1   21       1
    24    3   22       1
    25    8   23       1
    26    8   24       1
    27    9   25       1
    28   13   26       1
    29   14   27       1
    30   16   28       1
    31   17   29       1
    32   18   30       1
    33   19   31       1
    34   20   32       1
@<TRIPOS>SUBSTRUCTURE
     1 NAR1211     1 GROUP             4 B     NAR     0 **** NAR B1211
