@<TRIPOS>MOLECULE
2gks_ADP_1_ligand
   39    41     1     0     0
SMALL
NO_CHARGES


@<TRIPOS>ATOM
     1 PB         -26.4170    26.1760    62.0610 P.3          1 ADP900   0.0000
     2 O1B        -26.5470    24.7450    62.5260 O.co2        1 ADP900   0.0000
     3 O2B        -25.4700    27.0260    62.8650 O.co2        1 ADP900  -1.0000
     4 O3B        -26.2140    26.3000    60.5720 O.co2        1 ADP900  -1.0000
     5 PA         -28.1740    28.2480    63.0230 P.3          1 ADP900   0.0000
     6 O1A        -28.0220    28.1330    64.5200 O.co2        1 ADP900   0.0000
     7 O2A        -27.4610    29.3330    62.2580 O.co2        1 ADP900  -1.0000
     8 O3A        -27.8710    26.8050    62.3630 O.3          1 ADP900   0.0000
     9 O5'        -29.7650    28.3610    62.7950 O.3          1 ADP900   0.0000
    10 C5'        -30.3970    28.9330    61.6470 C.3          1 ADP900   0.0000
    11 C4'        -31.7850    29.4450    62.0510 C.3          1 ADP900   0.0000
    12 O4'        -32.6640    28.3810    62.4630 O.3          1 ADP900   0.0000
    13 C3'        -31.7000    30.4170    63.2260 C.3          1 ADP900   0.0000
    14 O3'        -32.2790    31.6780    62.8600 O.3          1 ADP900   0.0000
    15 C2'        -32.4650    29.7240    64.3450 C.3          1 ADP900   0.0000
    16 O2'        -33.1200    30.6500    65.2160 O.3          1 ADP900   0.0000
    17 C1'        -33.4520    28.8850    63.5490 C.3          1 ADP900   0.0000
    18 N9         -34.2240    27.8740    64.3390 N.pl3        1 ADP900   0.0000
    19 C8         -35.5700    27.8940    64.4310 C.2          1 ADP900   0.0000
    20 N7         -36.0440    26.8790    65.2010 N.2          1 ADP900   0.0000
    21 C5         -34.9780    26.1730    65.6280 C.ar         1 ADP900   0.0000
    22 C6         -34.7700    24.9720    66.4800 C.ar         1 ADP900   0.0000
    23 N6         -35.8230    24.3180    67.0280 N.pl3        1 ADP900   0.0000
    24 N1         -33.4940    24.5530    66.6940 N.ar         1 ADP900   0.0000
    25 C2         -32.4430    25.2020    66.1480 C.ar         1 ADP900   0.0000
    26 N3         -32.5580    26.2970    65.3590 N.ar         1 ADP900   0.0000
    27 C4         -33.7760    26.8300    65.0630 C.ar         1 ADP900   0.0000
    28 H5'1       -30.4895    28.2387    60.9333 H            1 ADP900   0.0000
    29 H5'2       -29.8453    29.6929    61.3033 H            1 ADP900   0.0000
    30 H4'        -32.1943    29.9175    61.2705 H            1 ADP900   0.0000
    31 H3'        -30.7452    30.5452    63.4942 H            1 ADP900   0.0000
    32 H5         -32.2199    32.3090    63.6335 H            1 ADP900   0.0000
    33 H2'        -31.8516    29.1323    64.8680 H            1 ADP900   0.0000
    34 H7         -33.6065    30.1480    65.9311 H            1 ADP900   0.0000
    35 H1'        -34.1193    29.5171    63.1550 H            1 ADP900   0.0000
    36 H9         -36.1505    28.5753    63.9852 H            1 ADP900   0.0000
    37 H10        -35.6686    23.5117    67.5990 H            1 ADP900   0.0000
    38 H11        -36.7543    24.6418    66.8614 H            1 ADP900   0.0000
    39 H12        -31.5251    24.8534    66.3375 H            1 ADP900   0.0000
@<TRIPOS>BOND
     1    1    2      ar
     2    1    3      ar
     3    1    4      ar
     4    1    8       1
     5    5    6      ar
     6    5    7      ar
     7    5    8       1
     8    5    9       1
     9    9   10       1
    10   10   11       1
    11   11   12       1
    12   11   13       1
    13   12   17       1
    14   13   14       1
    15   13   15       1
    16   15   16       1
    17   15   17       1
    18   17   18       1
    19   18   19       1
    20   18   27       1
    21   19   20       2
    22   20   21       1
    23   21   22      ar
    24   21   27      ar
    25   22   23       1
    26   22   24      ar
    27   24   25      ar
    28   25   26      ar
    29   26   27      ar
    30   25   39       1
    31   23   38       1
    32   23   37       1
    33   10   28       1
    34   10   29       1
    35   11   30       1
    36   13   31       1
    37   14   32       1
    38   15   33       1
    39   16   34       1
    40   17   35       1
    41   19   36       1
@<TRIPOS>SUBSTRUCTURE
     1 ADP900      1 GROUP             4 A     ADP     0 **** ADP A 900
