@<TRIPOS>MOLECULE
2z86_UGA_3_ligand
   56    58     1     0     0
SMALL
NO_CHARGES


@<TRIPOS>ATOM
     1 C1'        -14.2570    57.4700    18.6800 C.3          1 UGA683   0.0000
     2 C2'        -12.8810    57.5770    18.0470 C.3          1 UGA683   0.0000
     3 O2'        -12.2140    58.7520    18.4900 O.3          1 UGA683   0.0000
     4 C3'        -13.1140    57.6700    16.5550 C.3          1 UGA683   0.0000
     5 O3'        -11.8610    57.8680    15.8980 O.3          1 UGA683   0.0000
     6 C4'        -13.8640    56.4280    16.0570 C.3          1 UGA683   0.0000
     7 O4'        -14.2650    56.6320    14.7060 O.3          1 UGA683   0.0000
     8 C5'        -15.1190    56.1230    16.8890 C.3          1 UGA683   0.0000
     9 O5'        -14.8180    56.2140    18.2830 O.3          1 UGA683   0.0000
    10 C6'        -15.6700    54.7490    16.5900 C.2          1 UGA683   0.0000
    11 O'P        -15.8100    53.7870    17.6410 O.co2        1 UGA683   0.0000
    12 O'Q        -16.0450    54.4080    15.3350 O.co2        1 UGA683  -1.0000
    13 PB         -16.0880    59.3140    19.1560 P.3          1 UGA683   0.0000
    14 O1B        -15.3950    60.5930    19.5290 O.co2        1 UGA683   0.0000
    15 O2B        -16.5290    58.3340    20.2160 O.co2        1 UGA683  -1.0000
    16 O3B        -15.0910    58.5250    18.1880 O.3          1 UGA683   0.0000
    17 O3A        -17.3780    59.5370    18.2370 O.3          1 UGA683   0.0000
    18 PA         -17.7800    60.8850    17.4620 P.3          1 UGA683   0.0000
    19 O1A        -16.8470    62.0100    17.7820 O.co2        1 UGA683   0.0000
    20 O2A        -19.2590    61.1070    17.6810 O.co2        1 UGA683  -1.0000
    21 O5D        -17.6730    60.4060    15.9210 O.3          1 UGA683   0.0000
    22 C5D        -16.4680    60.1240    15.2130 C.3          1 UGA683   0.0000
    23 C4D        -16.4580    60.9660    13.9430 C.3          1 UGA683   0.0000
    24 O4D        -17.5090    60.5620    13.0570 O.3          1 UGA683   0.0000
    25 C3D        -16.6960    62.4340    14.2360 C.3          1 UGA683   0.0000
    26 O3D        -15.7410    63.1980    13.4900 O.3          1 UGA683   0.0000
    27 C2D        -18.1350    62.6680    13.7940 C.3          1 UGA683   0.0000
    28 O2D        -18.3460    63.9960    13.3500 O.3          1 UGA683   0.0000
    29 C1D        -18.3660    61.6510    12.6890 C.3          1 UGA683   0.0000
    30 N1         -19.7430    61.1320    12.6130 N.pl3        1 UGA683   0.0000
    31 C6         -20.3450    60.7320    13.7550 C.2          1 UGA683   0.0000
    32 C2         -20.3850    60.9940    11.4220 C.2          1 UGA683   0.0000
    33 O2         -19.8760    61.3300    10.3260 O.2          1 UGA683   0.0000
    34 N3         -21.6400    60.4900    11.3730 N.pl3        1 UGA683   0.0000
    35 C4         -22.2820    60.1000    12.4980 C.2          1 UGA683   0.0000
    36 O4         -23.4400    59.6350    12.4190 O.2          1 UGA683   0.0000
    37 C5         -21.6350    60.2170    13.7240 C.2          1 UGA683   0.0000
    38 H1'        -14.1859    57.5193    19.6762 H            1 UGA683   0.0000
    39 H2'        -12.3361    56.7668    18.2629 H            1 UGA683   0.0000
    40 H3         -12.1109    58.7220    19.4842 H            1 UGA683   0.0000
    41 H3'        -13.6871    58.4704    16.3792 H            1 UGA683   0.0000
    42 H5         -11.8822    58.7308    15.3928 H            1 UGA683   0.0000
    43 H4'        -13.2492    55.6403    16.0972 H            1 UGA683   0.0000
    44 H7         -15.1082    56.1246    14.5283 H            1 UGA683   0.0000
    45 H5'        -15.8196    56.8019    16.6694 H            1 UGA683   0.0000
    46 H5D1       -16.4330    59.1530    14.9764 H            1 UGA683   0.0000
    47 H5D2       -15.6786    60.3573    15.7808 H            1 UGA683   0.0000
    48 H4D        -15.5771    60.8591    13.4820 H            1 UGA683   0.0000
    49 H3D        -16.5984    62.6143    15.2148 H            1 UGA683   0.0000
    50 H13        -15.8599    63.0181    12.5135 H            1 UGA683   0.0000
    51 H2D        -18.7511    62.4727    14.5571 H            1 UGA683   0.0000
    52 H15        -17.7464    64.1869    12.5728 H            1 UGA683   0.0000
    53 H1D        -18.0879    62.0286    11.8058 H            1 UGA683   0.0000
    54 H17        -19.8598    60.8070    14.6262 H            1 UGA683   0.0000
    55 H18        -22.1008    60.4044    10.4897 H            1 UGA683   0.0000
    56 H19        -22.0906    59.9353    14.5684 H            1 UGA683   0.0000
@<TRIPOS>BOND
     1    1    2       1
     2    1    9       1
     3    1   16       1
     4    2    3       1
     5    2    4       1
     6    4    5       1
     7    4    6       1
     8    6    7       1
     9    6    8       1
    10    8    9       1
    11    8   10       1
    12   10   11      ar
    13   10   12      ar
    14   13   14      ar
    15   13   15      ar
    16   13   16       1
    17   13   17       1
    18   17   18       1
    19   18   19      ar
    20   18   20      ar
    21   18   21       1
    22   21   22       1
    23   22   23       1
    24   23   24       1
    25   23   25       1
    26   24   29       1
    27   25   26       1
    28   25   27       1
    29   27   28       1
    30   27   29       1
    31   29   30       1
    32   30   31       1
    33   30   32       1
    34   31   37       2
    35   32   33       2
    36   32   34       1
    37   34   35       1
    38   35   36       2
    39   35   37       1
    40    1   38       1
    41    2   39       1
    42    3   40       1
    43    4   41       1
    44    5   42       1
    45    6   43       1
    46    7   44       1
    47    8   45       1
    48   37   56       1
    49   34   55       1
    50   31   54       1
    51   22   46       1
    52   22   47       1
    53   23   48       1
    54   25   49       1
    55   26   50       1
    56   27   51       1
    57   28   52       1
    58   29   53       1
@<TRIPOS>SUBSTRUCTURE
     1 UGA683      1 GROUP             4 B     UGA     0 **** UGA B 683
