@<TRIPOS>MOLECULE
1xjd_STU_1_ligand
   62    69     1     0     0
SMALL
NO_CHARGES


@<TRIPOS>ATOM
     1 O4          56.1260     5.3900     2.8110 O.3          1 STU200   0.0000
     2 C25         57.0430     5.5230     3.9380 C.3          1 STU200   0.0000
     3 C24         56.2540     5.1360     5.3000 C.3          1 STU200   0.0000
     4 C23         54.7120     4.6950     5.0510 C.3          1 STU200   0.0000
     5 C22         53.9670     5.7890     4.2190 C.3          1 STU200   0.0000
     6 C21         54.7590     5.8750     2.7560 C.3          1 STU200   0.0000
     7 C26         54.1190     4.7910     1.8590 C.3          1 STU200   0.0000
     8 N2          54.6780     7.3800     2.2830 N.pl3        1 STU200   0.0000
     9 C18         55.7590     8.3090     2.6030 C.ar         1 STU200   0.0000
    10 C19         56.9750     8.1520     3.3430 C.ar         1 STU200   0.0000
    11 C6          57.9310     9.2920     3.5450 C.ar         1 STU200   0.0000
    12 C7          57.4880    10.6470     2.8870 C.ar         1 STU200   0.0000
    13 C10         56.3310    10.7860     2.2000 C.ar         1 STU200   0.0000
    14 C11         55.3870     9.6420     1.9860 C.ar         1 STU200   0.0000
    15 C12         54.1290     9.4820     1.3540 C.ar         1 STU200   0.0000
    16 C17         53.6820     8.0440     1.4720 C.ar         1 STU200   0.0000
    17 C16         52.3770     7.6450     0.8900 C.ar         1 STU200   0.0000
    18 C15         51.5710     8.5630     0.1450 C.ar         1 STU200   0.0000
    19 C14         52.0120     9.9930    -0.0130 C.ar         1 STU200   0.0000
    20 C13         53.2800    10.3980     0.5730 C.ar         1 STU200   0.0000
    21 C9          56.2060    12.2050     1.7000 C.3          1 STU200   0.0000
    22 N1          57.4270    12.7420     2.2290 N.am         1 STU200   0.0000
    23 C8          58.2130    11.9420     2.9110 C.2          1 STU200   0.0000
    24 O5          59.2770    12.2160     3.4240 O.2          1 STU200   0.0000
    25 C5          58.9920     8.8330     4.3300 C.ar         1 STU200   0.0000
    26 C20         58.7550     7.3650     4.5900 C.ar         1 STU200   0.0000
    27 C1          59.7050     6.5680     5.4310 C.ar         1 STU200   0.0000
    28 C2          60.9180     7.2230     5.9170 C.ar         1 STU200   0.0000
    29 C3          61.1770     8.6650     5.6340 C.ar         1 STU200   0.0000
    30 C4          60.2410     9.4260     4.8400 C.ar         1 STU200   0.0000
    31 N3          57.5420     6.9930     4.0440 N.pl3        1 STU200   0.0000
    32 O6          54.0050     7.1110     4.9390 O.3          1 STU200   0.0000
    33 C27         52.7830     7.8360     4.8940 C.3          1 STU200   0.0000
    34 N4          54.0870     4.4110     6.4850 N.4          1 STU200   1.0000
    35 C28         54.8260     3.3000     7.2330 C.3          1 STU200   0.0000
    36 H1          57.8229     4.9096     3.8133 H            1 STU200   0.0000
    37 H2          56.2620     5.9305     5.9072 H            1 STU200   0.0000
    38 H3          56.7337     4.3762     5.7388 H            1 STU200   0.0000
    39 H4          54.7070     3.8421     4.5289 H            1 STU200   0.0000
    40 H5          53.0173     5.5123     4.0723 H            1 STU200   0.0000
    41 H6          53.1492     4.9967     1.7280 H            1 STU200   0.0000
    42 H7          54.5798     4.7779     0.9716 H            1 STU200   0.0000
    43 H8          54.2140     3.8971     2.2971 H            1 STU200   0.0000
    44 H9          52.0517     6.7087     1.0220 H            1 STU200   0.0000
    45 H10         50.7153     8.2545    -0.2704 H            1 STU200   0.0000
    46 H11         51.4456    10.6504    -0.5100 H            1 STU200   0.0000
    47 H12         53.5891    11.3397     0.4399 H            1 STU200   0.0000
    48 H13         55.4012    12.6647     2.0755 H            1 STU200   0.0000
    49 H14         56.1794    12.2490     0.7013 H            1 STU200   0.0000
    50 H15         57.6726    13.7002     2.0820 H            1 STU200   0.0000
    51 H16         59.5140     5.6121     5.6542 H            1 STU200   0.0000
    52 H17         61.5837     6.6973     6.4466 H            1 STU200   0.0000
    53 H18         61.9995     9.1049     5.9945 H            1 STU200   0.0000
    54 H19         60.4461    10.3820     4.6304 H            1 STU200   0.0000
    55 H20         52.8878     8.6972     5.3914 H            1 STU200   0.0000
    56 H21         52.5441     8.0278     3.9421 H            1 STU200   0.0000
    57 H22         52.0575     7.2930     5.3169 H            1 STU200   0.0000
    58 H23         53.1310     4.1406     6.3709 H            1 STU200   0.0000
    59 H24         54.3986     3.1578     8.1258 H            1 STU200   0.0000
    60 H25         54.7799     2.4534     6.7028 H            1 STU200   0.0000
    61 H26         55.7826     3.5625     7.3594 H            1 STU200   0.0000
    62 H27         54.1337     5.2497     7.0276 H            1 STU200   0.0000
@<TRIPOS>BOND
     1    1    2       1
     2    1    6       1
     3    2    3       1
     4    2   31       1
     5    3    4       1
     6    4    5       1
     7    4   34       1
     8    5    6       1
     9    5   32       1
    10    6    7       1
    11    6    8       1
    12    8    9       1
    13    8   16       1
    14    9   10      ar
    15    9   14      ar
    16   10   11      ar
    17   10   31       1
    18   11   12      ar
    19   11   25       1
    20   12   13      ar
    21   12   23       1
    22   13   14      ar
    23   13   21       1
    24   14   15       1
    25   15   16      ar
    26   15   20      ar
    27   16   17      ar
    28   17   18      ar
    29   18   19      ar
    30   19   20      ar
    31   21   22       1
    32   22   23      am
    33   23   24       2
    34   25   26      ar
    35   25   30      ar
    36   26   27      ar
    37   26   31       1
    38   27   28      ar
    39   28   29      ar
    40   29   30      ar
    41   32   33       1
    42   34   35       1
    43    2   36       1
    44    3   37       1
    45    3   38       1
    46    4   39       1
    47    5   40       1
    48    7   41       1
    49    7   42       1
    50    7   43       1
    51   17   44       1
    52   18   45       1
    53   19   46       1
    54   20   47       1
    55   21   48       1
    56   21   49       1
    57   22   50       1
    58   27   51       1
    59   28   52       1
    60   29   53       1
    61   30   54       1
    62   33   55       1
    63   33   56       1
    64   33   57       1
    65   34   58       1
    66   35   59       1
    67   35   60       1
    68   35   61       1
    69   34   62       1
@<TRIPOS>SUBSTRUCTURE
     1 STU200      1 GROUP             4 A     STU     0 **** STU A 200
