@<TRIPOS>MOLECULE
2d09_FLV_1_ligand
   21    22     1     0     0
SMALL
NO_CHARGES


@<TRIPOS>ATOM
     1 OAB         49.5520    69.4230    62.9070 O.2          1 FLV431   0.0000
     2 CAM         50.7070    69.8070    62.7360 C.2          1 FLV431   0.0000
     3 CAN         51.2530    69.8570    61.4540 C.ar         1 FLV431   0.0000
     4 CAH         50.4860    69.4780    60.3550 C.ar         1 FLV431   0.0000
     5 CAI         51.0400    69.4810    59.0780 C.ar         1 FLV431   0.0000
     6 OAC         50.3120    69.0480    58.0120 O.3          1 FLV431   0.0000
     7 CAF         52.3620    69.8760    58.8980 C.ar         1 FLV431   0.0000
     8 CAK         53.1290    70.2570    59.9940 C.ar         1 FLV431   0.0000
     9 OAE         54.4270    70.6150    59.8020 O.3          1 FLV431   0.0000
    10 CAO         52.5800    70.2490    61.2750 C.ar         1 FLV431   0.0000
    11 CAL         53.3520    70.5960    62.3790 C.2          1 FLV431   0.0000
    12 OAA         54.5220    70.9480    62.2360 O.2          1 FLV431   0.0000
    13 CAG         52.8070    70.5470    63.6600 C.2          1 FLV431   0.0000
    14 CAJ         51.4850    70.1510    63.8370 C.2          1 FLV431   0.0000
    15 OAD         50.9520    70.0830    65.0870 O.3          1 FLV431   0.0000
    16 HAH         49.5333    69.2026    60.4838 H            1 FLV431   0.0000
    17 HAC         50.7147    69.0522    57.0967 H            1 FLV431   0.0000
    18 HAF         52.7606    69.8860    57.9809 H            1 FLV431   0.0000
    19 HAE         54.9900    70.8911    60.5810 H            1 FLV431   0.0000
    20 HAG         53.3652    70.7961    64.4514 H            1 FLV431   0.0000
    21 HAD         51.5073    70.3292    65.8814 H            1 FLV431   0.0000
@<TRIPOS>BOND
     1    1    2       2
     2    2    3       1
     3    2   14       1
     4    3    4      ar
     5    3   10      ar
     6    4    5      ar
     7    5    6       1
     8    5    7      ar
     9    7    8      ar
    10    8    9       1
    11    8   10      ar
    12   10   11       1
    13   11   12       2
    14   11   13       1
    15   13   14       2
    16   14   15       1
    17    4   16       1
    18    6   17       1
    19    7   18       1
    20    9   19       1
    21   13   20       1
    22   15   21       1
@<TRIPOS>SUBSTRUCTURE
     1 FLV431      1 GROUP             4 A     FLV     0 **** FLV A 431
