@<TRIPOS>MOLECULE
1gx9_REA_1_ligand
   49    49     1     0     0
SMALL
NO_CHARGES


@<TRIPOS>ATOM
     1 C1          14.0560    48.7610    57.1560 C.3          1 REA1163   0.0000
     2 C2          12.6220    48.7420    57.7120 C.3          1 REA1163   0.0000
     3 C3          12.6600    48.8230    59.2470 C.3          1 REA1163   0.0000
     4 C4          13.3640    47.5480    59.7510 C.3          1 REA1163   0.0000
     5 C5          14.6820    47.2960    59.0640 C.2          1 REA1163   0.0000
     6 C6          15.0140    47.8420    57.8830 C.2          1 REA1163   0.0000
     7 C7          16.2090    47.4840    57.1010 C.2          1 REA1163   0.0000
     8 C8          17.4720    47.8760    57.1860 C.2          1 REA1163   0.0000
     9 C9          18.5190    47.4360    56.2410 C.2          1 REA1163   0.0000
    10 C10         19.6030    48.1980    56.1200 C.2          1 REA1163   0.0000
    11 C11         20.7770    47.9890    55.2600 C.2          1 REA1163   0.0000
    12 C12         22.0110    48.0040    55.7630 C.2          1 REA1163   0.0000
    13 C13         23.2610    47.7850    55.0130 C.2          1 REA1163   0.0000
    14 C14         24.3710    47.3300    55.6090 C.2          1 REA1163   0.0000
    15 C15         24.8110    47.3390    57.0080 C.2          1 REA1163   0.0000
    16 C16         14.0000    48.3470    55.6680 C.3          1 REA1163   0.0000
    17 C17         14.6130    50.1920    57.2270 C.3          1 REA1163   0.0000
    18 C18         15.5270    46.2440    59.7210 C.3          1 REA1163   0.0000
    19 C19         18.3340    46.1730    55.4470 C.3          1 REA1163   0.0000
    20 C20         23.1840    47.5800    53.5180 C.3          1 REA1163   0.0000
    21 O1          24.0140    47.5830    57.9540 O.co2        1 REA1163   0.0000
    22 O2          26.0280    47.0880    57.2400 O.co2        1 REA1163  -1.0000
    23 H1          12.1693    47.8944    57.4350 H            1 REA1163   0.0000
    24 H2          12.1149    49.5243    57.3503 H            1 REA1163   0.0000
    25 H3          11.7298    48.8679    59.6112 H            1 REA1163   0.0000
    26 H4          13.1703    49.6333    59.5352 H            1 REA1163   0.0000
    27 H5          12.7635    46.7655    59.5864 H            1 REA1163   0.0000
    28 H6          13.5285    47.6412    60.7330 H            1 REA1163   0.0000
    29 H7          16.0355    46.8230    56.3709 H            1 REA1163   0.0000
    30 H8          17.7286    48.4992    57.9248 H            1 REA1163   0.0000
    31 H9          19.6216    49.0205    56.6884 H            1 REA1163   0.0000
    32 H10         20.6473    47.8329    54.2808 H            1 REA1163   0.0000
    33 H11         22.0973    48.1808    56.7435 H            1 REA1163   0.0000
    34 H12         25.0226    46.9037    54.9816 H            1 REA1163   0.0000
    35 H13         14.9239    48.3526    55.2855 H            1 REA1163   0.0000
    36 H14         13.6133    47.4279    55.5920 H            1 REA1163   0.0000
    37 H15         13.4265    48.9926    55.1637 H            1 REA1163   0.0000
    38 H16         15.5453    50.2051    56.8657 H            1 REA1163   0.0000
    39 H17         14.0362    50.8016    56.6832 H            1 REA1163   0.0000
    40 H18         14.6198    50.5002    58.1783 H            1 REA1163   0.0000
    41 H19         16.3798    46.1346    59.2104 H            1 REA1163   0.0000
    42 H20         15.7336    46.5205    60.6595 H            1 REA1163   0.0000
    43 H21         15.0307    45.3759    59.7309 H            1 REA1163   0.0000
    44 H22         19.1320    46.0269    54.8624 H            1 REA1163   0.0000
    45 H23         18.2320    45.3986    56.0715 H            1 REA1163   0.0000
    46 H24         17.5149    46.2533    54.8790 H            1 REA1163   0.0000
    47 H25         24.1049    47.4451    53.1522 H            1 REA1163   0.0000
    48 H26         22.6255    46.7744    53.3203 H            1 REA1163   0.0000
    49 H27         22.7707    48.3848    53.0920 H            1 REA1163   0.0000
@<TRIPOS>BOND
     1    1    2       1
     2    1    6       1
     3    1   16       1
     4    1   17       1
     5    2    3       1
     6    3    4       1
     7    4    5       1
     8    5    6       2
     9    5   18       1
    10    6    7       1
    11    7    8       2
    12    8    9       1
    13    9   10       2
    14    9   19       1
    15   10   11       1
    16   11   12       2
    17   12   13       1
    18   13   14       2
    19   13   20       1
    20   14   15       1
    21   15   21      ar
    22   15   22      ar
    23    2   23       1
    24    2   24       1
    25    3   25       1
    26    3   26       1
    27    4   27       1
    28    4   28       1
    29    7   29       1
    30    8   30       1
    31   10   31       1
    32   11   32       1
    33   12   33       1
    34   14   34       1
    35   16   35       1
    36   16   36       1
    37   16   37       1
    38   17   38       1
    39   17   39       1
    40   17   40       1
    41   18   41       1
    42   18   42       1
    43   18   43       1
    44   19   44       1
    45   19   45       1
    46   19   46       1
    47   20   47       1
    48   20   48       1
    49   20   49       1
@<TRIPOS>SUBSTRUCTURE
     1 REA1163     1 GROUP             4 A     REA     0 **** REA A1163
