@<TRIPOS>MOLECULE
3cif_NAD_1_ligand
   70    74     1     0     0
SMALL
NO_CHARGES


@<TRIPOS>ATOM
     1 PA          42.6620   122.9550    32.6410 P.3          1 NAD5463   0.0000
     2 O1A         44.0210   123.3670    32.2210 O.co2        1 NAD5463   0.0000
     3 O2A         41.8610   122.2060    31.4780 O.co2        1 NAD5463  -1.0000
     4 O5B         41.7600   124.2240    33.0650 O.3          1 NAD5463   0.0000
     5 C5B         42.3390   125.3220    33.7790 C.3          1 NAD5463   0.0000
     6 C4B         41.7600   126.6350    33.2590 C.3          1 NAD5463   0.0000
     7 O4B         42.1100   127.6980    34.1760 O.3          1 NAD5463   0.0000
     8 C3B         42.4070   126.9910    31.9110 C.3          1 NAD5463   0.0000
     9 O3B         41.3590   127.2360    30.9460 O.3          1 NAD5463   0.0000
    10 C2B         43.1990   128.2630    32.2020 C.3          1 NAD5463   0.0000
    11 O2B         43.1690   129.1640    31.0730 O.3          1 NAD5463   0.0000
    12 C1B         42.4140   128.8400    33.3660 C.3          1 NAD5463   0.0000
    13 N9A         43.1830   129.8050    34.1960 N.pl3        1 NAD5463   0.0000
    14 C8A         44.4890   129.8200    34.4690 C.2          1 NAD5463   0.0000
    15 N7A         44.7270   130.8660    35.2530 N.2          1 NAD5463   0.0000
    16 C5A         43.5720   131.4980    35.4710 C.ar         1 NAD5463   0.0000
    17 C6A         43.2720   132.5890    36.1860 C.ar         1 NAD5463   0.0000
    18 N6A         44.2850   133.1890    36.8100 N.pl3        1 NAD5463   0.0000
    19 N1A         42.0170   133.0600    36.2740 N.ar         1 NAD5463   0.0000
    20 C2A         40.9850   132.3900    35.5990 C.ar         1 NAD5463   0.0000
    21 N3A         41.3310   131.2530    34.8540 N.ar         1 NAD5463   0.0000
    22 C4A         42.6130   130.8360    34.8140 C.ar         1 NAD5463   0.0000
    23 O3          42.7170   121.9930    33.9240 O.3          1 NAD5463   0.0000
    24 PN          41.4990   121.0630    34.4300 P.3          1 NAD5463   0.0000
    25 O1N         41.8110   119.6630    34.0570 O.co2        1 NAD5463   0.0000
    26 O2N         40.2030   121.6550    34.0280 O.co2        1 NAD5463  -1.0000
    27 O5D         41.6990   121.1720    36.0100 O.3          1 NAD5463   0.0000
    28 C5D         41.2500   122.2920    36.7760 C.3          1 NAD5463   0.0000
    29 C4D         41.2510   121.9240    38.2650 C.3          1 NAD5463   0.0000
    30 O4D         40.3540   120.8180    38.5520 O.3          1 NAD5463   0.0000
    31 C3D         42.6350   121.4850    38.7420 C.3          1 NAD5463   0.0000
    32 O3D         42.7900   121.8930    40.1220 O.3          1 NAD5463   0.0000
    33 C2D         42.5550   119.9720    38.6550 C.3          1 NAD5463   0.0000
    34 O2D         43.4930   119.3530    39.5490 O.3          1 NAD5463   0.0000
    35 C1D         41.1240   119.7260    39.1160 C.3          1 NAD5463   0.0000
    36 N1N         40.5150   118.4730    38.5990 N.ar         1 NAD5463   1.0000
    37 C2N         40.8110   117.9880    37.3090 C.ar         1 NAD5463   0.0000
    38 C3N         40.2140   116.8170    36.8440 C.ar         1 NAD5463   0.0000
    39 C7N         40.5120   116.3350    35.5630 C.2          1 NAD5463   0.0000
    40 O7N         40.5287   115.1289    35.3168 O.2          1 NAD5463   0.0000
    41 N7N         40.7716   117.2630    34.6499 N.am         1 NAD5463   0.0000
    42 C4N         39.3150   116.1320    37.6670 C.ar         1 NAD5463   0.0000
    43 C5N         39.0080   116.6090    38.9410 C.ar         1 NAD5463   0.0000
    44 C6N         39.6050   117.7750    39.4090 C.ar         1 NAD5463   0.0000
    45 H5B1        43.3301   125.3197    33.6458 H            1 NAD5463   0.0000
    46 H5B2        42.1334   125.2306    34.7533 H            1 NAD5463   0.0000
    47 H4B         40.7669   126.5669    33.1640 H            1 NAD5463   0.0000
    48 H3B         43.0121   126.2575    31.6014 H            1 NAD5463   0.0000
    49 H5          40.7875   127.9942    31.2598 H            1 NAD5463   0.0000
    50 H2B         44.1387   128.0503    32.4698 H            1 NAD5463   0.0000
    51 H7          42.3839   129.7776    31.1570 H            1 NAD5463   0.0000
    52 H1B         41.5703   129.2639    33.0367 H            1 NAD5463   0.0000
    53 H8A         45.1672   129.1619    34.1421 H            1 NAD5463   0.0000
    54 H6A1        44.1193   134.0084    37.3587 H            1 NAD5463   0.0000
    55 H6A2        45.2109   132.8199    36.7296 H            1 NAD5463   0.0000
    56 H2A         40.0391   132.7109    35.6473 H            1 NAD5463   0.0000
    57 H5D1        40.3229   122.5390    36.4940 H            1 NAD5463   0.0000
    58 H5D2        41.8626   123.0676    36.6236 H            1 NAD5463   0.0000
    59 H4D         40.9630   122.7210    38.7959 H            1 NAD5463   0.0000
    60 H3D         43.3619   121.8526    38.1619 H            1 NAD5463   0.0000
    61 H17         43.6915   121.6140    40.4528 H            1 NAD5463   0.0000
    62 H2D         42.6904   119.6571    37.7156 H            1 NAD5463   0.0000
    63 H19         43.0007   118.7799    40.2042 H            1 NAD5463   0.0000
    64 H1D         41.0742   119.7478    40.1145 H            1 NAD5463   0.0000
    65 H2N         41.4519   118.4860    36.7248 H            1 NAD5463   0.0000
    66 H7N1        40.9940   116.9940    33.7128 H            1 NAD5463   0.0000
    67 H7N2        40.7448   118.2311    34.8992 H            1 NAD5463   0.0000
    68 H4N         38.8871   115.2901    37.3382 H            1 NAD5463   0.0000
    69 H5N         38.3590   116.1130    39.5179 H            1 NAD5463   0.0000
    70 H6N         39.3859   118.1164    40.3230 H            1 NAD5463   0.0000
@<TRIPOS>BOND
     1    1    2      ar
     2    1    3      ar
     3    1    4       1
     4    1   23       1
     5    4    5       1
     6    5    6       1
     7    6    7       1
     8    6    8       1
     9    7   12       1
    10    8    9       1
    11    8   10       1
    12   10   11       1
    13   10   12       1
    14   12   13       1
    15   13   14       1
    16   13   22       1
    17   14   15       2
    18   15   16       1
    19   16   17      ar
    20   16   22      ar
    21   17   18       1
    22   17   19      ar
    23   19   20      ar
    24   20   21      ar
    25   21   22      ar
    26   23   24       1
    27   24   25      ar
    28   24   26      ar
    29   24   27       1
    30   27   28       1
    31   28   29       1
    32   29   30       1
    33   29   31       1
    34   30   35       1
    35   31   32       1
    36   31   33       1
    37   33   34       1
    38   33   35       1
    39   35   36       1
    40   36   37      ar
    41   36   44      ar
    42   37   38      ar
    43   38   39       1
    44   38   42      ar
    45   39   40       2
    46   39   41      am
    47   42   43      ar
    48   43   44      ar
    49   44   70       1
    50    5   45       1
    51    5   46       1
    52    6   47       1
    53    8   48       1
    54    9   49       1
    55   10   50       1
    56   11   51       1
    57   12   52       1
    58   14   53       1
    59   18   54       1
    60   18   55       1
    61   20   56       1
    62   43   69       1
    63   28   57       1
    64   28   58       1
    65   29   59       1
    66   31   60       1
    67   32   61       1
    68   33   62       1
    69   34   63       1
    70   35   64       1
    71   37   65       1
    72   41   66       1
    73   41   67       1
    74   42   68       1
@<TRIPOS>SUBSTRUCTURE
     1 NAD5463     1 GROUP             4 A     NAD     0 **** NAD A5463
