@<TRIPOS>MOLECULE
3ojg_HL4_1_ligand
   25    25     1     0     0
SMALL
NO_CHARGES


@<TRIPOS>ATOM
     1 C1           5.8890    -8.7410   -19.0960 C.3          1 HL4327   0.0000
     2 C2           7.2840    -8.8590   -19.5990 C.2          1 HL4327   0.0000
     3 C4           6.5390    -6.8250   -20.5110 C.3          1 HL4327   0.0000
     4 C5           5.5820    -7.2770   -19.3980 C.3          1 HL4327   0.0000
     5 O6           8.0530    -9.7620   -19.3170 O.2          1 HL4327   0.0000
     6 N7           5.7110    -9.0600   -17.6960 N.am         1 HL4327   0.0000
     7 C8           4.4980    -9.3980   -17.2630 C.2          1 HL4327   0.0000
     8 O9           3.5500    -9.5510   -18.0180 O.2          1 HL4327   0.0000
     9 C10          4.3190    -9.5960   -15.7800 C.3          1 HL4327   0.0000
    10 C11          2.8280    -9.6590   -15.4840 C.3          1 HL4327   0.0000
    11 C13          2.1400    -8.3120   -15.6740 C.3          1 HL4327   0.0000
    12 OAP          7.6250    -7.7490   -20.4600 O.3          1 HL4327   0.0000
    13 H1           5.2901    -9.3235   -19.6455 H            1 HL4327   0.0000
    14 H2           6.8613    -5.8937   -20.3410 H            1 HL4327   0.0000
    15 H3           6.0859    -6.8636   -21.4016 H            1 HL4327   0.0000
    16 H4           5.7250    -6.7220   -18.5785 H            1 HL4327   0.0000
    17 H5           4.6344    -7.1827   -19.7033 H            1 HL4327   0.0000
    18 H6           6.4856    -9.0272   -17.0644 H            1 HL4327   0.0000
    19 H7           4.7302    -8.8309   -15.2845 H            1 HL4327   0.0000
    20 H8           4.7564   -10.4498   -15.4975 H            1 HL4327   0.0000
    21 H9           2.7008    -9.9537   -14.5369 H            1 HL4327   0.0000
    22 H10          2.4063   -10.3246   -16.0997 H            1 HL4327   0.0000
    23 H11          1.1656    -8.4035   -15.4686 H            1 HL4327   0.0000
    24 H12          2.5488    -7.6390   -15.0576 H            1 HL4327   0.0000
    25 H13          2.2542    -8.0099   -16.6204 H            1 HL4327   0.0000
@<TRIPOS>BOND
     1    1    2       1
     2    1    4       1
     3    1    6       1
     4    2    5       2
     5    2   12       1
     6    3    4       1
     7    3   12       1
     8    6    7      am
     9    7    8       2
    10    7    9       1
    11    9   10       1
    12   10   11       1
    13    1   13       1
    14    3   14       1
    15    3   15       1
    16    4   16       1
    17    4   17       1
    18    6   18       1
    19    9   19       1
    20    9   20       1
    21   10   21       1
    22   10   22       1
    23   11   23       1
    24   11   24       1
    25   11   25       1
@<TRIPOS>SUBSTRUCTURE
     1 HL4327      1 GROUP             4 A     HL4     0 **** HL4 A 327
