@<TRIPOS>MOLECULE
2ek9_BES_1_ligand
   45    45     1     0     0
SMALL
NO_CHARGES


@<TRIPOS>ATOM
     1 N2          17.2260    18.8920    15.8430 N.3          1 BES2001   0.0000
     2 C1          15.8210    19.2390    15.9280 C.3          1 BES2001   0.0000
     3 C6          15.1750    18.4670    17.0730 C.3          1 BES2001   0.0000
     4 C7          15.6310    17.0270    17.0290 C.ar         1 BES2001   0.0000
     5 C8          16.8450    16.6650    17.6020 C.ar         1 BES2001   0.0000
     6 C12         14.8370    16.0640    16.4180 C.ar         1 BES2001   0.0000
     7 C9          17.2650    15.3400    17.5620 C.ar         1 BES2001   0.0000
     8 C11         15.2570    14.7400    16.3780 C.ar         1 BES2001   0.0000
     9 C10         16.4710    14.3780    16.9500 C.ar         1 BES2001   0.0000
    10 C2          15.6800    20.7420    16.1350 C.3          1 BES2001   0.0000
    11 O2          16.8560    21.4030    15.6540 O.3          1 BES2001   0.0000
    12 C3          15.5060    21.0310    17.5970 C.2          1 BES2001   0.0000
    13 O3          16.4490    21.4160    18.2680 O.2          1 BES2001   0.0000
    14 N1          14.2880    20.8440    18.0980 N.am         1 BES2001   0.0000
    15 C4          14.0100    21.0940    19.5040 C.3          1 BES2001   0.0000
    16 C13         12.5070    20.8930    19.6500 C.3          1 BES2001   0.0000
    17 C14         11.7530    22.1870    19.3670 C.3          1 BES2001   0.0000
    18 C15         10.3390    22.1300    19.9330 C.3          1 BES2001   0.0000
    19 C16         12.5110    23.3920    19.9130 C.3          1 BES2001   0.0000
    20 C5          14.7330    20.1240    20.3910 C.2          1 BES2001   0.0000
    21 O1          15.0430    19.0060    19.9240 O.co2        1 BES2001   0.0000
    22 O4          14.9970    20.4690    21.5630 O.co2        1 BES2001  -1.0000
    23 H1          17.6802    19.1280    16.7021 H            1 BES2001   0.0000
    24 H2          15.3716    18.9857    15.0713 H            1 BES2001   0.0000
    25 H3          14.1800    18.5046    16.9810 H            1 BES2001   0.0000
    26 H4          15.4448    18.8757    17.9448 H            1 BES2001   0.0000
    27 H5          17.4161    17.3575    18.0429 H            1 BES2001   0.0000
    28 H6          13.9632    16.3239    16.0070 H            1 BES2001   0.0000
    29 H7          18.1383    15.0796    17.9736 H            1 BES2001   0.0000
    30 H8          14.6857    14.0474    15.9376 H            1 BES2001   0.0000
    31 H9          16.7729    13.4251    16.9210 H            1 BES2001   0.0000
    32 H10         14.8819    21.0742    15.6324 H            1 BES2001   0.0000
    33 H11         16.6153    22.3181    15.3304 H            1 BES2001   0.0000
    34 H12         13.5525    20.5269    17.4993 H            1 BES2001   0.0000
    35 H13         14.2581    22.0326    19.7438 H            1 BES2001   0.0000
    36 H14         12.3060    20.5948    20.5831 H            1 BES2001   0.0000
    37 H15         12.2066    20.1914    19.0038 H            1 BES2001   0.0000
    38 H16         11.6831    22.2915    18.3749 H            1 BES2001   0.0000
    39 H17          9.8658    22.9884    19.7349 H            1 BES2001   0.0000
    40 H18          9.8421    21.3708    19.5127 H            1 BES2001   0.0000
    41 H19         10.3814    21.9934    20.9227 H            1 BES2001   0.0000
    42 H20         11.9971    24.2267    19.7152 H            1 BES2001   0.0000
    43 H21         12.6223    23.2956    20.9021 H            1 BES2001   0.0000
    44 H22         13.4108    23.4440    19.4798 H            1 BES2001   0.0000
    45 H23         17.3174    17.9102    15.6763 H            1 BES2001   0.0000
@<TRIPOS>BOND
     1    1    2       1
     2    2    3       1
     3    2   10       1
     4    3    4       1
     5    4    5      ar
     6    4    6      ar
     7    5    7      ar
     8    6    8      ar
     9    7    9      ar
    10    8    9      ar
    11   10   11       1
    12   10   12       1
    13   12   13       2
    14   12   14      am
    15   14   15       1
    16   15   16       1
    17   15   20       1
    18   16   17       1
    19   17   18       1
    20   17   19       1
    21   20   21      ar
    22   20   22      ar
    23    1   45       1
    24    1   23       1
    25    2   24       1
    26    3   25       1
    27    3   26       1
    28    5   27       1
    29    6   28       1
    30    7   29       1
    31    8   30       1
    32    9   31       1
    33   10   32       1
    34   11   33       1
    35   14   34       1
    36   15   35       1
    37   16   36       1
    38   16   37       1
    39   17   38       1
    40   18   39       1
    41   18   40       1
    42   18   41       1
    43   19   42       1
    44   19   43       1
    45   19   44       1
@<TRIPOS>SUBSTRUCTURE
     1 BES2001     1 GROUP             4 A     BES     0 **** BES A2001
