@<TRIPOS>MOLECULE
3b99_U51_4_ligand
   56    57     1     0     0
SMALL
NO_CHARGES


@<TRIPOS>ATOM
     1 OAW          3.4430    -8.8690    89.0290 O.3          1 U51700   0.0000
     2 CAV          4.0890    -9.4610    88.1220 C.2          1 U51700   0.0000
     3 OAX          4.4870   -10.6390    88.2210 O.2          1 U51700   0.0000
     4 CAR          4.4230    -8.7410    86.8350 C.3          1 U51700   0.0000
     5 CAQ          3.6830    -7.4140    86.7190 C.3          1 U51700   0.0000
     6 CAP          2.4140    -7.6400    85.9220 C.3          1 U51700   0.0000
     7 CAO          1.4460    -6.4790    86.0420 C.2          1 U51700   0.0000
     8 CAN          1.0470    -6.1140    87.2520 C.2          1 U51700   0.0000
     9 CAF          0.0820    -4.9920    87.4030 C.3          1 U51700   0.0000
    10 CAD          0.6010    -3.8820    88.2970 C.3          1 U51700   0.0000
    11 CAC         -0.3020    -2.6720    88.1230 C.3          1 U51700   0.0000
    12 CAB         -0.0980    -1.9140    89.4080 C.3          1 U51700   0.0000
    13 NAT         -1.6130    -3.2100    88.4730 N.2          1 U51700   0.0000
    14 NAS         -1.6740    -3.4470    89.6930 N.2          1 U51700   0.0000
    15 CAA         -0.4040    -3.0980    90.3020 C.3          1 U51700   0.0000
    16 CAE          0.5450    -4.1790    89.7940 C.3          1 U51700   0.0000
    17 CAG          1.9040    -3.8970    90.3770 C.2          1 U51700   0.0000
    18 CAH          2.6400    -4.8660    90.9210 C.2          1 U51700   0.0000
    19 CAI          4.0090    -4.5060    91.4690 C.3          1 U51700   0.0000
    20 CAJ          4.6830    -5.6510    92.2100 C.3          1 U51700   0.0000
    21 CAK          4.6630    -6.9440    91.4080 C.3          1 U51700   0.0000
    22 CAL          6.0300    -7.6100    91.3290 C.3          1 U51700   0.0000
    23 CAM          6.5320    -7.5710    89.8880 C.3          1 U51700   0.0000
    24 CAU          7.2700    -8.8460    89.5320 C.3          1 U51700   0.0000
    25 HAR1         4.1669    -9.3228    86.0630 H            1 U51700   0.0000
    26 HAR2         5.4072    -8.5659    86.8083 H            1 U51700   0.0000
    27 HAQ1         4.2608    -6.7452    86.2511 H            1 U51700   0.0000
    28 HAQ2         3.4527    -7.0752    87.6312 H            1 U51700   0.0000
    29 HAP1         1.9661    -8.4685    86.2582 H            1 U51700   0.0000
    30 HAP2         2.6558    -7.7592    84.9590 H            1 U51700   0.0000
    31 HAO          1.1167    -6.0004    85.2280 H            1 U51700   0.0000
    32 HAN          1.3932    -6.5908    88.0600 H            1 U51700   0.0000
    33 HAF1        -0.7641    -5.3501    87.7977 H            1 U51700   0.0000
    34 HAF2        -0.1076    -4.6105    86.4983 H            1 U51700   0.0000
    35 HAD          1.5365    -3.6460    88.0341 H            1 U51700   0.0000
    36 HAC         -0.2269    -2.1592    87.2678 H            1 U51700   0.0000
    37 HAB1        -0.7440    -1.1595    89.5236 H            1 U51700   0.0000
    38 HAB2         0.8357    -1.5730    89.5168 H            1 U51700   0.0000
    39 HAA         -0.4083    -2.9291    91.2876 H            1 U51700   0.0000
    40 HAE          0.2217    -5.1039    89.9939 H            1 U51700   0.0000
    41 HAG          2.2619    -2.9635    90.3557 H            1 U51700   0.0000
    42 HAH          2.2994    -5.8051    90.9669 H            1 U51700   0.0000
    43 HAI1         3.9057    -3.7372    92.1000 H            1 U51700   0.0000
    44 HAI2         4.5947    -4.2342    90.7054 H            1 U51700   0.0000
    45 HAJ1         4.2044    -5.8010    93.0751 H            1 U51700   0.0000
    46 HAJ2         5.6335    -5.4006    92.3939 H            1 U51700   0.0000
    47 HAK1         4.3531    -6.7394    90.4795 H            1 U51700   0.0000
    48 HAK2         4.0228    -7.5787    91.8409 H            1 U51700   0.0000
    49 HAL1         5.9557    -8.5605    91.6306 H            1 U51700   0.0000
    50 HAL2         6.6731    -7.1223    91.9194 H            1 U51700   0.0000
    51 HAM1         7.1517    -6.7938    89.7791 H            1 U51700   0.0000
    52 HAM2         5.7509    -7.4633    89.2729 H            1 U51700   0.0000
    53 HAU1         7.5873    -8.7942    88.5851 H            1 U51700   0.0000
    54 HAU2         8.0552    -8.9578    90.1411 H            1 U51700   0.0000
    55 HAU3         6.6544    -9.6273    89.6349 H            1 U51700   0.0000
    56 HAW          3.2258    -9.3458    89.8807 H            1 U51700   0.0000
@<TRIPOS>BOND
     1    1    2       1
     2    2    3       2
     3    2    4       1
     4    4    5       1
     5    5    6       1
     6    6    7       1
     7    7    8       2
     8    8    9       1
     9    9   10       1
    10   10   11       1
    11   10   16       1
    12   11   12       1
    13   11   13       1
    14   12   15       1
    15   13   14       2
    16   14   15       1
    17   15   16       1
    18   16   17       1
    19   17   18       2
    20   18   19       1
    21   19   20       1
    22   20   21       1
    23   21   22       1
    24   22   23       1
    25   23   24       1
    26   24   55       1
    27    4   25       1
    28    4   26       1
    29    5   27       1
    30    5   28       1
    31    6   29       1
    32    6   30       1
    33    7   31       1
    34    8   32       1
    35    9   33       1
    36    9   34       1
    37   10   35       1
    38   11   36       1
    39   12   37       1
    40   12   38       1
    41   15   39       1
    42   16   40       1
    43   17   41       1
    44   18   42       1
    45   19   43       1
    46   19   44       1
    47   20   45       1
    48   20   46       1
    49   21   47       1
    50   21   48       1
    51   22   49       1
    52   22   50       1
    53   23   51       1
    54   23   52       1
    55   24   53       1
    56   24   54       1
    57    1   56       1
@<TRIPOS>SUBSTRUCTURE
     1 U51700      1 GROUP             4 B     U51     0 **** U51 B 700
