@<TRIPOS>MOLECULE
3lov_FAD_1_ligand
   84    89     1     0     0
SMALL
NO_CHARGES


@<TRIPOS>ATOM
     1 PA          27.9080    25.5730    89.0090 P.3          1 FAD500   0.0000
     2 O1A         26.8630    24.5310    89.2230 O.co2        1 FAD500   0.0000
     3 O2A         27.4810    26.9720    88.7660 O.co2        1 FAD500  -1.0000
     4 O5B         28.8940    25.5530    90.2580 O.3          1 FAD500   0.0000
     5 C5B         29.7990    26.5920    90.5300 C.3          1 FAD500   0.0000
     6 C4B         30.2550    26.4400    91.9860 C.3          1 FAD500   0.0000
     7 O4B         31.3320    27.3350    92.2740 O.3          1 FAD500   0.0000
     8 C3B         29.1130    26.7210    92.9410 C.3          1 FAD500   0.0000
     9 O3B         29.0200    25.7350    93.9540 O.3          1 FAD500   0.0000
    10 C2B         29.5050    28.0860    93.4730 C.3          1 FAD500   0.0000
    11 O2B         29.0730    28.3120    94.7680 O.3          1 FAD500   0.0000
    12 C1B         31.0180    28.0330    93.4460 C.3          1 FAD500   0.0000
    13 N9A         31.7010    29.3360    93.4300 N.pl3        1 FAD500   0.0000
    14 C8A         31.3680    30.5400    92.8490 C.2          1 FAD500   0.0000
    15 N7A         32.3270    31.4630    93.1140 N.2          1 FAD500   0.0000
    16 C5A         33.2840    30.8510    93.8760 C.ar         1 FAD500   0.0000
    17 C6A         34.4960    31.2700    94.4290 C.ar         1 FAD500   0.0000
    18 N6A         34.9550    32.5030    94.2320 N.pl3        1 FAD500   0.0000
    19 N1A         35.2550    30.3810    95.1730 N.ar         1 FAD500   0.0000
    20 C2A         34.8460    29.0790    95.3340 C.ar         1 FAD500   0.0000
    21 N3A         33.6590    28.6580    94.7630 N.ar         1 FAD500   0.0000
    22 C4A         32.8940    29.5290    94.0740 C.ar         1 FAD500   0.0000
    23 N1          22.2060    20.6440    82.1580 N.2          1 FAD500   0.0000
    24 C2          21.7370    19.4080    81.8070 C.2          1 FAD500   0.0000
    25 O2          22.5160    18.5220    81.4300 O.2          1 FAD500   0.0000
    26 N3          20.3890    19.1570    81.8500 N.pl3        1 FAD500   0.0000
    27 C4          19.4940    20.0980    82.2100 C.2          1 FAD500   0.0000
    28 O4          18.3160    19.7970    82.2570 O.2          1 FAD500   0.0000
    29 C4X         19.9320    21.3640    82.5360 C.2          1 FAD500   0.0000
    30 N5          19.0220    22.3220    82.9530 N.2          1 FAD500   0.0000
    31 C5X         19.4990    23.5890    83.2990 C.ar         1 FAD500   0.0000
    32 C6          18.5970    24.5860    83.6860 C.ar         1 FAD500   0.0000
    33 C7          19.0630    25.8650    84.0340 C.ar         1 FAD500   0.0000
    34 C7M         18.0910    26.9270    84.4570 C.3          1 FAD500   0.0000
    35 C8          20.4420    26.1440    84.0330 C.ar         1 FAD500   0.0000
    36 C8M         20.9890    27.5150    84.3890 C.3          1 FAD500   0.0000
    37 C9          21.3500    25.1560    83.6650 C.ar         1 FAD500   0.0000
    38 C9A         20.8940    23.8720    83.2880 C.ar         1 FAD500   0.0000
    39 N10         21.8050    22.8760    82.9150 N.pl3        1 FAD500   0.0000
    40 C10         21.3110    21.6230    82.5310 C.2          1 FAD500   0.0000
    41 C1'         23.2980    23.0960    82.8530 C.3          1 FAD500   0.0000
    42 C2'         23.9270    22.5910    84.1750 C.3          1 FAD500   0.0000
    43 O2'         23.4320    23.3510    85.2140 O.3          1 FAD500   0.0000
    44 C3'         25.4590    22.6810    84.1900 C.3          1 FAD500   0.0000
    45 O3'         25.9160    21.6370    83.3400 O.3          1 FAD500   0.0000
    46 C4'         26.1350    22.4700    85.5690 C.3          1 FAD500   0.0000
    47 O4'         25.3360    22.7480    86.7030 O.3          1 FAD500   0.0000
    48 C5'         27.3560    23.3550    85.7290 C.3          1 FAD500   0.0000
    49 O5'         28.0120    23.0150    86.9240 O.3          1 FAD500   0.0000
    50 P           29.3580    23.7530    87.2930 P.3          1 FAD500   0.0000
    51 O1P         30.2250    24.0080    86.0880 O.co2        1 FAD500   0.0000
    52 O2P         30.0630    23.1460    88.4820 O.co2        1 FAD500  -1.0000
    53 O3P         28.8630    25.2400    87.7620 O.3          1 FAD500   0.0000
    54 H5B1        29.3504    27.4768    90.4037 H            1 FAD500   0.0000
    55 H5B2        30.5867    26.5272    89.9174 H            1 FAD500   0.0000
    56 H4B         30.5698    25.5016    92.1282 H            1 FAD500   0.0000
    57 H3B         28.2505    26.7815    92.4386 H            1 FAD500   0.0000
    58 H5          29.8708    25.7153    94.4791 H            1 FAD500   0.0000
    59 H2B         29.1711    28.8057    92.8643 H            1 FAD500   0.0000
    60 H7          29.4707    27.6255    95.3767 H            1 FAD500   0.0000
    61 H1B         31.3391    27.5071    94.2336 H            1 FAD500   0.0000
    62 H8A         30.5418    30.7088    92.3115 H            1 FAD500   0.0000
    63 H6A1        35.8254    32.7832    94.6370 H            1 FAD500   0.0000
    64 H6A2        34.4297    33.1497    93.6790 H            1 FAD500   0.0000
    65 H2A         35.4043    28.4388    95.8617 H            1 FAD500   0.0000
    66 H13         20.0594    18.2450    81.6060 H            1 FAD500   0.0000
    67 H14         17.6173    24.3876    83.7150 H            1 FAD500   0.0000
    68 H7M1        18.5879    27.7690    84.6673 H            1 FAD500   0.0000
    69 H7M2        17.4421    27.0992    83.7159 H            1 FAD500   0.0000
    70 H7M3        17.5953    26.6206    85.2697 H            1 FAD500   0.0000
    71 H8M1        21.9870    27.5020    84.3275 H            1 FAD500   0.0000
    72 H8M2        20.6247    28.1948    83.7525 H            1 FAD500   0.0000
    73 H8M3        20.7156    27.7511    85.3215 H            1 FAD500   0.0000
    74 H21         22.3300    25.3551    83.6672 H            1 FAD500   0.0000
    75 H1'1        23.4905    24.0707    82.7391 H            1 FAD500   0.0000
    76 H1'2        23.6817    22.5881    82.0818 H            1 FAD500   0.0000
    77 H2'         23.6587    21.6381    84.3163 H            1 FAD500   0.0000
    78 H25         24.1162    23.4076    85.9410 H            1 FAD500   0.0000
    79 H3'         25.7427    23.5629    83.8135 H            1 FAD500   0.0000
    80 H27         25.9958    21.9800    82.4041 H            1 FAD500   0.0000
    81 H4'         26.4331    21.5171    85.6257 H            1 FAD500   0.0000
    82 H29         25.6211    22.1639    87.4630 H            1 FAD500   0.0000
    83 H5'1        27.0735    24.3137    85.7623 H            1 FAD500   0.0000
    84 H5'2        27.9745    23.2165    84.9555 H            1 FAD500   0.0000
@<TRIPOS>BOND
     1    1    2      ar
     2    1    3      ar
     3    1    4       1
     4    1   53       1
     5    4    5       1
     6    5    6       1
     7    6    7       1
     8    6    8       1
     9    7   12       1
    10    8    9       1
    11    8   10       1
    12   10   11       1
    13   10   12       1
    14   12   13       1
    15   13   14       1
    16   13   22       1
    17   14   15       2
    18   15   16       1
    19   16   17      ar
    20   16   22      ar
    21   17   18       1
    22   17   19      ar
    23   19   20      ar
    24   20   21      ar
    25   21   22      ar
    26   23   24       1
    27   23   40       2
    28   24   25       2
    29   24   26       1
    30   26   27       1
    31   27   28       2
    32   27   29       1
    33   29   30       2
    34   29   40       1
    35   30   31       1
    36   31   32      ar
    37   31   38      ar
    38   32   33      ar
    39   33   34       1
    40   33   35      ar
    41   35   36       1
    42   35   37      ar
    43   37   38      ar
    44   38   39       1
    45   39   40       1
    46   39   41       1
    47   41   42       1
    48   42   43       1
    49   42   44       1
    50   44   45       1
    51   44   46       1
    52   46   47       1
    53   46   48       1
    54   48   49       1
    55   49   50       1
    56   50   51      ar
    57   50   52      ar
    58   50   53       1
    59   48   84       1
    60    5   54       1
    61    5   55       1
    62    6   56       1
    63    8   57       1
    64    9   58       1
    65   10   59       1
    66   11   60       1
    67   12   61       1
    68   14   62       1
    69   18   63       1
    70   18   64       1
    71   20   65       1
    72   26   66       1
    73   32   67       1
    74   34   68       1
    75   34   69       1
    76   34   70       1
    77   36   71       1
    78   36   72       1
    79   36   73       1
    80   37   74       1
    81   41   75       1
    82   41   76       1
    83   42   77       1
    84   43   78       1
    85   44   79       1
    86   45   80       1
    87   46   81       1
    88   47   82       1
    89   48   83       1
@<TRIPOS>SUBSTRUCTURE
     1 FAD500      1 GROUP             4 A     FAD     0 **** FAD A 500
