@<TRIPOS>MOLECULE
2eq7_FAD_1_ligand
   84    89     1     0     0
SMALL
NO_CHARGES


@<TRIPOS>ATOM
     1 PA          32.0100    43.7900    29.1090 P.3          1 FAD2482   0.0000
     2 O1A         30.8770    43.0200    28.5400 O.co2        1 FAD2482   0.0000
     3 O2A         33.1510    43.9740    28.3800 O.co2        1 FAD2482  -1.0000
     4 O5B         31.3350    45.1540    29.2050 O.3          1 FAD2482   0.0000
     5 C5B         32.0350    46.3650    29.6620 C.3          1 FAD2482   0.0000
     6 C4B         31.2460    47.5540    29.0630 C.3          1 FAD2482   0.0000
     7 O4B         31.8060    48.7660    29.6680 O.3          1 FAD2482   0.0000
     8 C3B         31.3440    47.7610    27.5390 C.3          1 FAD2482   0.0000
     9 O3B         30.1290    47.7590    26.8670 O.3          1 FAD2482   0.0000
    10 C2B         32.1940    49.0200    27.4010 C.3          1 FAD2482   0.0000
    11 O2B         31.8790    49.7710    26.2600 O.3          1 FAD2482   0.0000
    12 C1B         31.8180    49.7930    28.6290 C.3          1 FAD2482   0.0000
    13 N9A         32.7920    50.7250    29.1980 N.pl3        1 FAD2482   0.0000
    14 C8A         34.1270    50.4870    29.4550 C.2          1 FAD2482   0.0000
    15 N7A         34.7420    51.5410    29.9950 N.2          1 FAD2482   0.0000
    16 C5A         33.7680    52.5060    30.0960 C.ar         1 FAD2482   0.0000
    17 C6A         33.7960    53.8890    30.6150 C.ar         1 FAD2482   0.0000
    18 N6A         34.8640    54.4710    31.1130 N.pl3        1 FAD2482   0.0000
    19 N1A         32.5860    54.5610    30.5430 N.ar         1 FAD2482   0.0000
    20 C2A         31.4510    53.9910    30.0340 C.ar         1 FAD2482   0.0000
    21 N3A         31.3410    52.7370    29.5460 N.ar         1 FAD2482   0.0000
    22 C4A         32.5230    52.0320    29.5970 C.ar         1 FAD2482   0.0000
    23 N1          31.7800    34.5440    27.7300 N.2          1 FAD2482   0.0000
    24 C2          30.9640    33.5450    28.0400 C.2          1 FAD2482   0.0000
    25 O2          30.6280    33.3390    29.1720 O.2          1 FAD2482   0.0000
    26 N3          30.4360    32.6670    27.0360 N.pl3        1 FAD2482   0.0000
    27 C4          30.7560    32.8220    25.6930 C.2          1 FAD2482   0.0000
    28 O4          30.2880    32.0600    24.8710 O.2          1 FAD2482   0.0000
    29 C4X         31.6500    33.9190    25.3470 C.2          1 FAD2482   0.0000
    30 N5          31.9970    34.1310    24.0550 N.2          1 FAD2482   0.0000
    31 C5X         32.8310    35.1960    23.7680 C.ar         1 FAD2482   0.0000
    32 C6          33.1770    35.4090    22.4020 C.ar         1 FAD2482   0.0000
    33 C7          33.9960    36.4590    22.0260 C.ar         1 FAD2482   0.0000
    34 C7M         34.3350    36.6530    20.5630 C.3          1 FAD2482   0.0000
    35 C8          34.5260    37.3780    23.0470 C.ar         1 FAD2482   0.0000
    36 C8M         35.4210    38.5530    22.7000 C.3          1 FAD2482   0.0000
    37 C9          34.1950    37.1680    24.4020 C.ar         1 FAD2482   0.0000
    38 C9A         33.3600    36.0930    24.7690 C.ar         1 FAD2482   0.0000
    39 N10         32.9740    35.8170    26.1320 N.pl3        1 FAD2482   0.0000
    40 C10         32.1470    34.7740    26.4310 C.2          1 FAD2482   0.0000
    41 C1'         33.4770    36.6900    27.2200 C.3          1 FAD2482   0.0000
    42 C2'         32.3370    37.6240    27.6880 C.3          1 FAD2482   0.0000
    43 O2'         31.9530    38.4110    26.5580 O.3          1 FAD2482   0.0000
    44 C3'         32.8560    38.4980    28.8170 C.3          1 FAD2482   0.0000
    45 O3'         33.2530    37.6710    29.9070 O.3          1 FAD2482   0.0000
    46 C4'         31.7480    39.4210    29.3130 C.3          1 FAD2482   0.0000
    47 O4'         31.2820    40.2880    28.2480 O.3          1 FAD2482   0.0000
    48 C5'         32.3190    40.2400    30.4510 C.3          1 FAD2482   0.0000
    49 O5'         31.1870    41.2000    30.9920 O.3          1 FAD2482   0.0000
    50 P           31.6000    42.5020    31.6430 P.3          1 FAD2482   0.0000
    51 O1P         30.2450    43.0920    32.0910 O.co2        1 FAD2482   0.0000
    52 O2P         32.5390    42.3340    32.6680 O.co2        1 FAD2482  -1.0000
    53 O3P         32.2890    43.3330    30.6210 O.3          1 FAD2482   0.0000
    54 H5B1        32.9781    46.3692    29.3296 H            1 FAD2482   0.0000
    55 H5B2        32.0334    46.4130    30.6608 H            1 FAD2482   0.0000
    56 H4B         30.2835    47.4727    29.3218 H            1 FAD2482   0.0000
    57 H3B         31.8826    47.0018    27.1737 H            1 FAD2482   0.0000
    58 H5          29.5519    48.4957    27.2195 H            1 FAD2482   0.0000
    59 H2B         33.1673    48.7907    27.4138 H            1 FAD2482   0.0000
    60 H7          30.9209    50.0544    26.3015 H            1 FAD2482   0.0000
    61 H1B         30.9196    50.2208    28.5293 H            1 FAD2482   0.0000
    62 H8A         34.5836    49.6194    29.2580 H            1 FAD2482   0.0000
    63 H6A1        34.8107    55.4121    31.4470 H            1 FAD2482   0.0000
    64 H6A2        35.7299    53.9728    31.1579 H            1 FAD2482   0.0000
    65 H2A         30.6260    54.5560    30.0224 H            1 FAD2482   0.0000
    66 H13         29.8230    31.9257    27.3093 H            1 FAD2482   0.0000
    67 H14         32.8216    34.7886    21.7028 H            1 FAD2482   0.0000
    68 H7M1        34.9314    37.4493    20.4618 H            1 FAD2482   0.0000
    69 H7M2        34.8038    35.8395    20.2188 H            1 FAD2482   0.0000
    70 H7M3        33.4937    36.7983    20.0423 H            1 FAD2482   0.0000
    71 H8M1        35.6658    39.0439    23.5361 H            1 FAD2482   0.0000
    72 H8M2        36.2515    38.2192    22.2541 H            1 FAD2482   0.0000
    73 H8M3        34.9355    39.1704    22.0810 H            1 FAD2482   0.0000
    74 H21         34.5535    37.7832    25.1041 H            1 FAD2482   0.0000
    75 H1'1        34.2419    37.2386    26.8825 H            1 FAD2482   0.0000
    76 H1'2        33.7839    36.1262    27.9868 H            1 FAD2482   0.0000
    77 H2'         31.5597    37.0812    28.0061 H            1 FAD2482   0.0000
    78 H25         31.6184    39.3004    26.8694 H            1 FAD2482   0.0000
    79 H3'         33.6341    39.0396    28.4989 H            1 FAD2482   0.0000
    80 H27         33.9971    38.1136    30.4075 H            1 FAD2482   0.0000
    81 H4'         30.9844    38.8708    29.6509 H            1 FAD2482   0.0000
    82 H29         31.4245    41.2428    28.5090 H            1 FAD2482   0.0000
    83 H5'1        33.0925    40.7818    30.1222 H            1 FAD2482   0.0000
    84 H5'2        32.6252    39.6324    31.1838 H            1 FAD2482   0.0000
@<TRIPOS>BOND
     1    1    2      ar
     2    1    3      ar
     3    1    4       1
     4    1   53       1
     5    4    5       1
     6    5    6       1
     7    6    7       1
     8    6    8       1
     9    7   12       1
    10    8    9       1
    11    8   10       1
    12   10   11       1
    13   10   12       1
    14   12   13       1
    15   13   14       1
    16   13   22       1
    17   14   15       2
    18   15   16       1
    19   16   17      ar
    20   16   22      ar
    21   17   18       1
    22   17   19      ar
    23   19   20      ar
    24   20   21      ar
    25   21   22      ar
    26   23   24       1
    27   23   40       2
    28   24   25       2
    29   24   26       1
    30   26   27       1
    31   27   28       2
    32   27   29       1
    33   29   30       2
    34   29   40       1
    35   30   31       1
    36   31   32      ar
    37   31   38      ar
    38   32   33      ar
    39   33   34       1
    40   33   35      ar
    41   35   36       1
    42   35   37      ar
    43   37   38      ar
    44   38   39       1
    45   39   40       1
    46   39   41       1
    47   41   42       1
    48   42   43       1
    49   42   44       1
    50   44   45       1
    51   44   46       1
    52   46   47       1
    53   46   48       1
    54   48   49       1
    55   49   50       1
    56   50   51      ar
    57   50   52      ar
    58   50   53       1
    59   48   84       1
    60    5   54       1
    61    5   55       1
    62    6   56       1
    63    8   57       1
    64    9   58       1
    65   10   59       1
    66   11   60       1
    67   12   61       1
    68   14   62       1
    69   18   63       1
    70   18   64       1
    71   20   65       1
    72   26   66       1
    73   32   67       1
    74   34   68       1
    75   34   69       1
    76   34   70       1
    77   36   71       1
    78   36   72       1
    79   36   73       1
    80   37   74       1
    81   41   75       1
    82   41   76       1
    83   42   77       1
    84   43   78       1
    85   44   79       1
    86   45   80       1
    87   46   81       1
    88   47   82       1
    89   48   83       1
@<TRIPOS>SUBSTRUCTURE
     1 FAD2482     1 GROUP             4 A     FAD     0 **** FAD A2482
