@<TRIPOS>MOLECULE
4ag9_COA_1_ligand
   80    82     1     0     0
SMALL
NO_CHARGES


@<TRIPOS>ATOM
     1 N1A         38.6120    26.8910    40.1650 N.ar         1 COA1166   0.0000
     2 C2A         39.6360    27.7100    40.6810 C.ar         1 COA1166   0.0000
     3 N3A         40.9660    27.3790    40.4460 N.ar         1 COA1166   0.0000
     4 C4A         41.2220    26.2680    39.7280 C.ar         1 COA1166   0.0000
     5 C5A         40.2280    25.4900    39.2340 C.ar         1 COA1166   0.0000
     6 C6A         38.9520    25.7960    39.4600 C.ar         1 COA1166   0.0000
     7 N6A         38.0390    24.9830    38.9440 N.pl3        1 COA1166   0.0000
     8 N7A         40.7700    24.4640    38.5680 N.2          1 COA1166   0.0000
     9 C8A         42.0950    24.6160    38.6330 C.2          1 COA1166   0.0000
    10 N9A         42.3650    25.7230    39.3640 N.pl3        1 COA1166   0.0000
    11 C1B         43.6770    26.2320    39.6080 C.3          1 COA1166   0.0000
    12 C2B         44.6920    25.2290    40.1380 C.3          1 COA1166   0.0000
    13 O2B         44.9720    25.5340    41.5570 O.3          1 COA1166   0.0000
    14 C3B         45.9160    25.5390    39.2680 C.3          1 COA1166   0.0000
    15 O3B         46.6470    26.6360    39.8050 O.3          1 COA1166   0.0000
    16 P3B         48.0000    26.4570    40.6180 P.3          1 COA1166   0.0000
    17 O7A         47.5500    25.6120    41.9540 O.co2        1 COA1166   0.0000
    18 O8A         48.2400    27.9800    41.0890 O.co2        1 COA1166  -1.0000
    19 O9A         49.0110    25.8290    39.7340 O.co2        1 COA1166  -1.0000
    20 C4B         45.3620    26.1650    37.9870 C.3          1 COA1166   0.0000
    21 O4B         43.9880    26.3710    38.2030 O.3          1 COA1166   0.0000
    22 C5B         45.5560    25.2290    36.8210 C.3          1 COA1166   0.0000
    23 O5B         44.7270    24.0920    37.0310 O.3          1 COA1166   0.0000
    24 P1A         45.1410    22.9370    36.0420 P.3          1 COA1166   0.0000
    25 O1A         45.4000    21.6610    36.7570 O.co2        1 COA1166   0.0000
    26 O2A         46.1580    23.5270    35.1750 O.co2        1 COA1166  -1.0000
    27 O3A         43.8690    22.7710    35.1940 O.3          1 COA1166   0.0000
    28 P2A         43.7360    21.6980    34.0340 P.3          1 COA1166   0.0000
    29 O4A         43.2060    20.4490    34.6980 O.co2        1 COA1166   0.0000
    30 O5A         44.8690    21.5770    33.1010 O.co2        1 COA1166  -1.0000
    31 O6A         42.4760    22.4340    33.2300 O.3          1 COA1166   0.0000
    32 CBP         40.1530    22.6790    33.0340 C.3          1 COA1166   0.0000
    33 CCP         41.3730    23.0440    33.8800 C.3          1 COA1166   0.0000
    34 CDP         38.8310    23.1240    33.6970 C.3          1 COA1166   0.0000
    35 CEP         40.2350    23.4210    31.7070 C.3          1 COA1166   0.0000
    36 CAP         40.2230    21.1220    32.8340 C.3          1 COA1166   0.0000
    37 OAP         40.5900    20.4800    34.0620 O.3          1 COA1166   0.0000
    38 C9P         38.9010    20.4790    32.5200 C.2          1 COA1166   0.0000
    39 O9P         38.4720    19.5790    33.2550 O.2          1 COA1166   0.0000
    40 N8P         38.2770    20.8690    31.4290 N.am         1 COA1166   0.0000
    41 C7P         36.9380    20.2590    31.1600 C.3          1 COA1166   0.0000
    42 C6P         35.7610    20.9430    31.9370 C.3          1 COA1166   0.0000
    43 C5P         35.6720    20.5560    33.4180 C.2          1 COA1166   0.0000
    44 O5P         35.8420    19.4010    33.8020 O.2          1 COA1166   0.0000
    45 N4P         35.3840    21.5660    34.2370 N.am         1 COA1166   0.0000
    46 C3P         35.2640    21.3650    35.6770 C.3          1 COA1166   0.0000
    47 C2P         33.7880    21.3790    36.0240 C.3          1 COA1166   0.0000
    48 S1P         33.4440    22.6730    37.2640 S.3          1 COA1166   0.0000
    49 H2A         39.4074    28.5250    41.2134 H            1 COA1166   0.0000
    50 H6A1        38.3234    24.1770    38.4249 H            1 COA1166   0.0000
    51 H6A2        37.0665    25.1763    39.0743 H            1 COA1166   0.0000
    52 H8A         42.7735    24.0136    38.2126 H            1 COA1166   0.0000
    53 H1B         43.6805    27.1005    40.1036 H            1 COA1166   0.0000
    54 H2B         44.3800    24.2867    40.0162 H            1 COA1166   0.0000
    55 H7          45.3415    26.4602    41.6322 H            1 COA1166   0.0000
    56 H3B         46.4865    24.7360    39.0956 H            1 COA1166   0.0000
    57 H4B         45.8161    27.0375    37.8066 H            1 COA1166   0.0000
    58 H5B1        46.5137    24.9462    36.7679 H            1 COA1166   0.0000
    59 H5B2        45.2960    25.6868    35.9708 H            1 COA1166   0.0000
    60 HCP1        41.4915    24.0364    33.9137 H            1 COA1166   0.0000
    61 HCP2        41.2738    22.6884    34.8093 H            1 COA1166   0.0000
    62 HDP1        38.0617    22.8666    33.1123 H            1 COA1166   0.0000
    63 HDP2        38.7375    22.6773    34.5868 H            1 COA1166   0.0000
    64 HDP3        38.8379    24.1162    33.8212 H            1 COA1166   0.0000
    65 HEP1        39.4407    23.1888    31.1456 H            1 COA1166   0.0000
    66 HEP2        40.2469    24.4065    31.8763 H            1 COA1166   0.0000
    67 HEP3        41.0713    23.1550    31.2275 H            1 COA1166   0.0000
    68 HAP         40.8881    20.8995    32.1211 H            1 COA1166   0.0000
    69 H21         41.5856    20.4018    34.1127 H            1 COA1166   0.0000
    70 H8P         38.6794    21.5421    30.8085 H            1 COA1166   0.0000
    71 H7P1        36.9721    19.2953    31.4248 H            1 COA1166   0.0000
    72 H7P2        36.7512    20.3291    30.1801 H            1 COA1166   0.0000
    73 H6P1        34.9022    20.6856    31.4941 H            1 COA1166   0.0000
    74 H6P2        35.8819    21.9340    31.8792 H            1 COA1166   0.0000
    75 H4P         35.2472    22.4809    33.8571 H            1 COA1166   0.0000
    76 H3P1        35.7351    22.1005    36.1638 H            1 COA1166   0.0000
    77 H3P2        35.6655    20.4855    35.9326 H            1 COA1166   0.0000
    78 H2P1        33.5276    20.4879    36.3956 H            1 COA1166   0.0000
    79 H2P2        33.2562    21.5638    35.1976 H            1 COA1166   0.0000
    80 H1P         32.4686    22.6725    37.4845 H            1 COA1166   0.0000
@<TRIPOS>BOND
     1    1    2      ar
     2    1    6      ar
     3    2    3      ar
     4    3    4      ar
     5    4    5      ar
     6    4   10       1
     7    5    6      ar
     8    5    8       1
     9    6    7       1
    10    8    9       2
    11    9   10       1
    12   10   11       1
    13   11   12       1
    14   11   21       1
    15   12   13       1
    16   12   14       1
    17   14   15       1
    18   14   20       1
    19   15   16       1
    20   16   17      ar
    21   16   18      ar
    22   16   19      ar
    23   20   21       1
    24   20   22       1
    25   22   23       1
    26   23   24       1
    27   24   25      ar
    28   24   26      ar
    29   24   27       1
    30   27   28       1
    31   28   29      ar
    32   28   30      ar
    33   28   31       1
    34   31   33       1
    35   32   33       1
    36   32   34       1
    37   32   35       1
    38   32   36       1
    39   36   37       1
    40   36   38       1
    41   38   39       2
    42   38   40      am
    43   40   41       1
    44   41   42       1
    45   42   43       1
    46   43   44       2
    47   43   45      am
    48   45   46       1
    49   46   47       1
    50   47   48       1
    51    2   49       1
    52    7   50       1
    53    7   51       1
    54    9   52       1
    55   11   53       1
    56   12   54       1
    57   13   55       1
    58   14   56       1
    59   48   80       1
    60   47   79       1
    61   20   57       1
    62   22   58       1
    63   22   59       1
    64   47   78       1
    65   46   77       1
    66   33   60       1
    67   33   61       1
    68   34   62       1
    69   34   63       1
    70   34   64       1
    71   35   65       1
    72   35   66       1
    73   35   67       1
    74   36   68       1
    75   37   69       1
    76   40   70       1
    77   41   71       1
    78   41   72       1
    79   42   73       1
    80   42   74       1
    81   45   75       1
    82   46   76       1
@<TRIPOS>SUBSTRUCTURE
     1 COA1166     1 GROUP             4 A     COA     0 **** COA A1166
