@<TRIPOS>MOLECULE
3pm0_BHF_1_ligand
   33    36     1     0     0
SMALL
NO_CHARGES


@<TRIPOS>ATOM
     1 C8         -17.5010    19.5090   -20.5740 C.2          1 BHF800   0.0000
     2 C9         -16.5560    20.4060   -21.0680 C.2          1 BHF800   0.0000
     3 O2         -15.6020    19.9900   -21.7270 O.2          1 BHF800   0.0000
     4 C10        -16.7040    21.7720   -20.8460 C.ar         1 BHF800   0.0000
     5 C11        -15.7460    22.6830   -21.2860 C.ar         1 BHF800   0.0000
     6 C12        -15.8940    24.0350   -20.9890 C.ar         1 BHF800   0.0000
     7 C13        -16.9940    24.4760   -20.2580 C.ar         1 BHF800   0.0000
     8 C14        -17.1580    25.8320   -19.9880 C.ar         1 BHF800   0.0000
     9 C15        -18.2760    26.2690   -19.2840 C.ar         1 BHF800   0.0000
    10 C16        -19.2340    25.3590   -18.8480 C.ar         1 BHF800   0.0000
    11 C17        -19.0720    24.0020   -19.1150 C.ar         1 BHF800   0.0000
    12 C18        -17.9530    23.5650   -19.8190 C.ar         1 BHF800   0.0000
    13 C19        -17.8030    22.2160   -20.1170 C.ar         1 BHF800   0.0000
    14 O1         -18.8000    21.3400   -19.8140 O.2          1 BHF800   0.0000
    15 C7         -18.6030    19.9930   -19.8770 C.2          1 BHF800   0.0000
    16 C1         -19.5760    19.1590   -19.3330 C.ar         1 BHF800   0.0000
    17 C2         -19.5400    17.7800   -19.5210 C.ar         1 BHF800   0.0000
    18 C3         -20.5180    16.9720   -18.9510 C.ar         1 BHF800   0.0000
    19 C4         -21.5360    17.5380   -18.1880 C.ar         1 BHF800   0.0000
    20 C5         -21.5740    18.9170   -18.0020 C.ar         1 BHF800   0.0000
    21 C6         -20.5960    19.7250   -18.5750 C.ar         1 BHF800   0.0000
    22 H1         -17.3879    18.5261   -20.7193 H            1 BHF800   0.0000
    23 H2         -14.9564    22.3674   -21.8123 H            1 BHF800   0.0000
    24 H3         -15.2079    24.6918   -21.3018 H            1 BHF800   0.0000
    25 H4         -16.4734    26.4910   -20.2995 H            1 BHF800   0.0000
    26 H5         -18.3916    27.2432   -19.0902 H            1 BHF800   0.0000
    27 H6         -20.0366    25.6786   -18.3443 H            1 BHF800   0.0000
    28 H7         -19.7568    23.3438   -18.8023 H            1 BHF800   0.0000
    29 H8         -18.8095    17.3697   -20.0669 H            1 BHF800   0.0000
    30 H9         -20.4900    15.9820   -19.0895 H            1 BHF800   0.0000
    31 H10        -22.2369    16.9562   -17.7754 H            1 BHF800   0.0000
    32 H11        -22.3045    19.3275   -17.4563 H            1 BHF800   0.0000
    33 H12        -20.6267    20.7155   -18.4413 H            1 BHF800   0.0000
@<TRIPOS>BOND
     1    1    2       1
     2    1   15       2
     3    2    3       2
     4    2    4       1
     5    4    5      ar
     6    4   13      ar
     7    5    6      ar
     8    6    7      ar
     9    7    8      ar
    10    7   12      ar
    11    8    9      ar
    12    9   10      ar
    13   10   11      ar
    14   11   12      ar
    15   12   13      ar
    16   13   14       1
    17   14   15       1
    18   15   16       1
    19   16   17      ar
    20   16   21      ar
    21   17   18      ar
    22   18   19      ar
    23   19   20      ar
    24   20   21      ar
    25    1   22       1
    26    5   23       1
    27    6   24       1
    28    8   25       1
    29    9   26       1
    30   10   27       1
    31   11   28       1
    32   17   29       1
    33   18   30       1
    34   19   31       1
    35   20   32       1
    36   21   33       1
@<TRIPOS>SUBSTRUCTURE
     1 BHF800      1 GROUP             4 A     BHF     0 **** BHF A 800
