@<TRIPOS>MOLECULE
3cbl_STU_1_ligand
   62    69     1     0     0
SMALL
NO_CHARGES


@<TRIPOS>ATOM
     1 O4          22.4530    22.4420    22.4690 O.3          1 STU901   0.0000
     2 C25         22.4990    23.8970    22.4700 C.3          1 STU901   0.0000
     3 C24         22.2690    24.4890    23.8930 C.3          1 STU901   0.0000
     4 C23         21.9110    23.3740    24.8940 C.3          1 STU901   0.0000
     5 C22         20.7930    22.5320    24.2530 C.3          1 STU901   0.0000
     6 C21         21.3540    21.7270    23.0400 C.3          1 STU901   0.0000
     7 C26         21.9240    20.3940    23.5530 C.3          1 STU901   0.0000
     8 N2          20.2580    21.6390    21.9990 N.pl3        1 STU901   0.0000
     9 C18         19.9670    22.6180    21.1170 C.ar         1 STU901   0.0000
    10 C19         20.6200    23.8420    20.8400 C.ar         1 STU901   0.0000
    11 C6          20.1520    24.7000    19.8500 C.ar         1 STU901   0.0000
    12 C7          19.0660    24.3120    19.0720 C.ar         1 STU901   0.0000
    13 C10         18.4410    23.0750    19.3250 C.ar         1 STU901   0.0000
    14 C11         18.8690    22.2250    20.3410 C.ar         1 STU901   0.0000
    15 C12         18.4400    21.0200    20.8430 C.ar         1 STU901   0.0000
    16 C17         19.2950    20.6880    21.9100 C.ar         1 STU901   0.0000
    17 C16         19.1120    19.4370    22.5320 C.ar         1 STU901   0.0000
    18 C15         18.0580    18.6040    22.1830 C.ar         1 STU901   0.0000
    19 C14         17.1860    18.9800    21.1390 C.ar         1 STU901   0.0000
    20 C13         17.3950    20.1790    20.4590 C.ar         1 STU901   0.0000
    21 C9          17.2350    22.9360    18.4120 C.3          1 STU901   0.0000
    22 N1          17.2980    24.1930    17.7030 N.am         1 STU901   0.0000
    23 C8          18.3470    24.9360    18.0340 C.2          1 STU901   0.0000
    24 O5          18.6180    26.0360    17.5050 O.2          1 STU901   0.0000
    25 C5          21.0310    25.8080    19.8420 C.ar         1 STU901   0.0000
    26 C20         21.9820    25.5840    20.8330 C.ar         1 STU901   0.0000
    27 C1          22.9860    26.5270    21.0900 C.ar         1 STU901   0.0000
    28 C2          23.0880    27.7050    20.3330 C.ar         1 STU901   0.0000
    29 C3          22.1380    27.9450    19.3330 C.ar         1 STU901   0.0000
    30 C4          21.1230    26.9850    19.0930 C.ar         1 STU901   0.0000
    31 N3          21.7100    24.4110    21.4130 N.pl3        1 STU901   0.0000
    32 O6          19.7980    23.5420    23.9440 O.3          1 STU901   0.0000
    33 C27         18.4280    23.0910    24.1720 C.3          1 STU901   0.0000
    34 N4          21.4670    23.8840    26.2150 N.4          1 STU901   1.0000
    35 C28         22.4380    24.5430    27.1070 C.3          1 STU901   0.0000
    36 H1          23.4421    24.1321    22.2348 H            1 STU901   0.0000
    37 H2          21.5199    25.1505    23.8564 H            1 STU901   0.0000
    38 H3          23.1041    24.9475    24.1969 H            1 STU901   0.0000
    39 H4          22.7138    22.7929    25.0277 H            1 STU901   0.0000
    40 H5          20.4235    21.8972    24.9316 H            1 STU901   0.0000
    41 H6          21.1898    19.8537    23.9642 H            1 STU901   0.0000
    42 H7          22.3238    19.8866    22.7896 H            1 STU901   0.0000
    43 H8          22.6290    20.5748    24.2388 H            1 STU901   0.0000
    44 H9          19.7548    19.1432    23.2395 H            1 STU901   0.0000
    45 H10         17.9172    17.7415    22.6690 H            1 STU901   0.0000
    46 H11         16.4203    18.3880    20.8877 H            1 STU901   0.0000
    47 H12         16.7981    20.4353    19.6988 H            1 STU901   0.0000
    48 H13         16.3857    22.8475    18.9325 H            1 STU901   0.0000
    49 H14         17.3287    22.1570    17.7920 H            1 STU901   0.0000
    50 H15         16.6169    24.4762    17.0278 H            1 STU901   0.0000
    51 H16         23.6417    26.3579    21.8259 H            1 STU901   0.0000
    52 H17         23.8244    28.3594    20.5046 H            1 STU901   0.0000
    53 H18         22.1751    28.7859    18.7930 H            1 STU901   0.0000
    54 H19         20.4548    27.1542    18.3685 H            1 STU901   0.0000
    55 H20         17.7920    23.8276    23.9422 H            1 STU901   0.0000
    56 H21         18.2388    22.2955    23.5963 H            1 STU901   0.0000
    57 H22         18.3151    22.8410    25.1336 H            1 STU901   0.0000
    58 H23         21.0951    23.1033    26.7173 H            1 STU901   0.0000
    59 H24         21.9789    24.8247    27.9495 H            1 STU901   0.0000
    60 H25         23.1755    23.9044    27.3268 H            1 STU901   0.0000
    61 H26         22.8184    25.3469    26.6498 H            1 STU901   0.0000
    62 H27         20.7380    24.5458    26.0403 H            1 STU901   0.0000
@<TRIPOS>BOND
     1    1    2       1
     2    1    6       1
     3    2    3       1
     4    2   31       1
     5    3    4       1
     6    4    5       1
     7    4   34       1
     8    5    6       1
     9    5   32       1
    10    6    7       1
    11    6    8       1
    12    8    9       1
    13    8   16       1
    14    9   10      ar
    15    9   14      ar
    16   10   11      ar
    17   10   31       1
    18   11   12      ar
    19   11   25       1
    20   12   13      ar
    21   12   23       1
    22   13   14      ar
    23   13   21       1
    24   14   15       1
    25   15   16      ar
    26   15   20      ar
    27   16   17      ar
    28   17   18      ar
    29   18   19      ar
    30   19   20      ar
    31   21   22       1
    32   22   23      am
    33   23   24       2
    34   25   26      ar
    35   25   30      ar
    36   26   27      ar
    37   26   31       1
    38   27   28      ar
    39   28   29      ar
    40   29   30      ar
    41   32   33       1
    42   34   35       1
    43    2   36       1
    44    3   37       1
    45    3   38       1
    46    4   39       1
    47    5   40       1
    48    7   41       1
    49    7   42       1
    50    7   43       1
    51   17   44       1
    52   18   45       1
    53   19   46       1
    54   20   47       1
    55   21   48       1
    56   21   49       1
    57   22   50       1
    58   27   51       1
    59   28   52       1
    60   29   53       1
    61   30   54       1
    62   33   55       1
    63   33   56       1
    64   33   57       1
    65   34   58       1
    66   35   59       1
    67   35   60       1
    68   35   61       1
    69   34   62       1
@<TRIPOS>SUBSTRUCTURE
     1 STU901      1 GROUP             4 A     STU     0 **** STU A 901
