@<TRIPOS>MOLECULE
1by5_GLY_GLY_GLY_AHO_AHO_AHO_FE_1_ligand
   85    84     5     0     0
SMALL
NO_CHARGES


@<TRIPOS>ATOM
     1 C1         117.1960    46.3680    17.0050 C.2          1 AHO801   0.0000
     2 C2         117.0990    46.1480    18.4900 C.3          1 AHO801   0.0000
     3 C3         116.8950    44.6780    18.8610 C.3          1 AHO801   0.0000
     4 C4         117.4640    44.3670    20.2500 C.3          1 AHO801   0.0000
     5 C5         116.9620    43.0120    20.8130 C.3          1 AHO801   0.0000
     6 C6         114.7150    41.8240    20.7250 C.2          1 AHO801   0.0000
     7 C7         115.2310    40.4890    20.4210 C.3          1 AHO801   0.0000
     8 N1         116.0370    46.9380    19.1450 N.am         1 AHO801   0.0000
     9 N2         115.5040    42.8930    20.8900 N.am         1 AHO801   0.0000
    10 O1         117.7130    45.5330    16.2880 O.2          1 AHO801   0.0000
    11 O2         114.8750    44.1200    21.1970 O.3          1 AHO801  -1.0000
    12 O3         113.4730    42.0110    20.8480 O.2          1 AHO801   0.0000
    13 H1         117.9698    46.4354    18.8889 H            1 AHO801   0.0000
    14 H2         117.3570    44.1046    18.1844 H            1 AHO801   0.0000
    15 H3         115.9159    44.4745    18.8575 H            1 AHO801   0.0000
    16 H4         117.1905    45.0954    20.8782 H            1 AHO801   0.0000
    17 H5         118.4616    44.3376    20.1878 H            1 AHO801   0.0000
    18 H6         117.3344    42.8986    21.7341 H            1 AHO801   0.0000
    19 H7         117.3049    42.2814    20.2225 H            1 AHO801   0.0000
    20 H8         114.4684    39.8472    20.3408 H            1 AHO801   0.0000
    21 H9         115.7365    40.5154    19.5586 H            1 AHO801   0.0000
    22 H10        115.8407    40.1920    21.1558 H            1 AHO801   0.0000
    23 C1         116.3200    47.9400    20.0550 C.2          2 AHO802   0.0000
    24 C2         115.1200    48.6450    20.8090 C.3          2 AHO802   0.0000
    25 C3         114.8800    47.8180    22.0670 C.3          2 AHO802   0.0000
    26 C4         113.7560    48.2540    23.0340 C.3          2 AHO802   0.0000
    27 C5         112.2790    47.9190    22.6640 C.3          2 AHO802   0.0000
    28 C6         111.4910    45.5210    22.9730 C.2          2 AHO802   0.0000
    29 C7         110.8830    45.7080    24.3680 C.3          2 AHO802   0.0000
    30 N1         113.8410    48.6610    19.9850 N.am         2 AHO802   0.0000
    31 N2         112.0720    46.4910    22.2920 N.am         2 AHO802   0.0000
    32 O1         117.4470    48.2590    20.3620 O.2          2 AHO802   0.0000
    33 O2         112.5720    46.2060    21.0580 O.3          2 AHO802  -1.0000
    34 O3         111.4280    44.3580    22.4540 O.2          2 AHO802   0.0000
    35 H11        115.3761    49.5788    21.0588 H            2 AHO802   0.0000
    36 H12        115.7338    47.8184    22.5877 H            2 AHO802   0.0000
    37 H13        114.6701    46.8859    21.7717 H            2 AHO802   0.0000
    38 H14        113.8178    49.2476    23.1284 H            2 AHO802   0.0000
    39 H15        113.9434    47.8230    23.9167 H            2 AHO802   0.0000
    40 H16        112.0086    48.4908    21.8895 H            2 AHO802   0.0000
    41 H17        111.6995    48.1287    23.4515 H            2 AHO802   0.0000
    42 H18        110.5012    44.8396    24.6844 H            2 AHO802   0.0000
    43 H19        111.5933    46.0110    25.0033 H            2 AHO802   0.0000
    44 H20        110.1579    46.3954    24.3262 H            2 AHO802   0.0000
    45 H21        115.0818    46.7419    18.9232 H            2 AHO802   0.0000
    46 C1         113.7520    49.3950    18.8000 C.2          3 AHO803   0.0000
    47 C2         112.3510    49.2450    18.1540 C.3          3 AHO803   0.0000
    48 C3         111.9580    47.7480    17.8350 C.3          3 AHO803   0.0000
    49 C4         112.8680    47.0910    16.7970 C.3          3 AHO803   0.0000
    50 C5         112.5460    45.6450    16.4330 C.3          3 AHO803   0.0000
    51 C6         111.1860    44.1370    17.9840 C.2          3 AHO803   0.0000
    52 C7         109.9380    44.0140    17.0860 C.3          3 AHO803   0.0000
    53 N1         112.3630    50.0400    16.9250 N.am         3 AHO803   0.0000
    54 N2         112.2640    44.8500    17.6390 N.am         3 AHO803   0.0000
    55 O1         114.6680    50.0730    18.3630 O.2          3 AHO803   0.0000
    56 O2         113.3240    44.8720    18.5390 O.3          3 AHO803  -1.0000
    57 O3         111.1730    43.5200    19.1200 O.2          3 AHO803   0.0000
    58 H22        111.6691    49.6289    18.7765 H            3 AHO803   0.0000
    59 H23        111.0198    47.7331    17.4892 H            3 AHO803   0.0000
    60 H24        112.0094    47.2191    18.6821 H            3 AHO803   0.0000
    61 H25        113.8023    47.1146    17.1527 H            3 AHO803   0.0000
    62 H26        112.8164    47.6346    15.9592 H            3 AHO803   0.0000
    63 H27        113.3277    45.2463    15.9534 H            3 AHO803   0.0000
    64 H28        111.7445    45.6286    15.8353 H            3 AHO803   0.0000
    65 H29        109.2576    43.4371    17.5380 H            3 AHO803   0.0000
    66 H30        109.5516    44.9223    16.9261 H            3 AHO803   0.0000
    67 H31        110.1957    43.6028    16.2117 H            3 AHO803   0.0000
    68 H32        113.0493    48.1362    20.2977 H            3 AHO803   0.0000
    69 N          112.7140    51.2900    14.4900 N.3          4 GLY804   0.0000
    70 CA         111.3980    51.3060    15.0440 C.3          4 GLY804   0.0000
    71 C          111.2420    50.5610    16.3260 C.2          4 GLY804   0.0000
    72 O          110.0870    50.3800    16.8380 O.2          4 GLY804   0.0000
    73 H33        112.7229    51.8115    13.6368 H            4 GLY804   0.0000
    74 HA1        110.7749    50.9029    14.3737 H            4 GLY804   0.0000
    75 HA2        111.1419    52.2589    15.2064 H            4 GLY804   0.0000
    76 H36        113.2472    50.2157    16.4921 H            4 GLY804   0.0000
    77 N          116.7110    47.4920    16.5280 N.am         5 GLY806   0.0000
    78 CA         116.7320    47.8680    15.1010 C.3          5 GLY806   0.0000
    79 C          115.8520    49.0690    14.8720 C.2          5 GLY806   0.0000
    80 O          115.5080    49.7240    15.8540 O.2          5 GLY806   0.0000
    81 H37        116.3970    47.1024    14.5518 H            5 GLY806   0.0000
    82 H38        117.6692    48.0876    14.8301 H            5 GLY806   0.0000
    83 H39        115.5573    49.3252    13.9514 H            5 GLY806   0.0000
    84 H40        116.3006    48.1351    17.1745 H            5 GLY806   0.0000
    85 H41        113.3539    51.7016    15.1389 H            5 GLY806   0.0000
@<TRIPOS>BOND
     1    1    2       1
     2    1   10       2
     3    2    3       1
     4    2    8       1
     5    3    4       1
     6    4    5       1
     7    5    9       1
     8    6    7       1
     9    6    9      am
    10    6   12       2
    11    9   11       1
    12   79   83       1
    13    2   13       1
    14    3   14       1
    15    3   15       1
    16    4   16       1
    17    4   17       1
    18    5   18       1
    19    5   19       1
    20    7   20       1
    21    7   21       1
    22    7   22       1
    23   77   84       1
    24   70   75       1
    25   69   85       1
    26    8   23      am
    27   23   24       1
    28   23   32       2
    29   24   25       1
    30   24   30       1
    31   25   26       1
    32   26   27       1
    33   27   31       1
    34   28   29       1
    35   28   31      am
    36   28   34       2
    37   31   33       1
    38   78   81       1
    39   24   35       1
    40   25   36       1
    41   25   37       1
    42   26   38       1
    43   26   39       1
    44   27   40       1
    45   27   41       1
    46   29   42       1
    47   29   43       1
    48   29   44       1
    49    8   45       1
    50   30   46      am
    51   46   47       1
    52   46   55       2
    53   47   48       1
    54   47   53       1
    55   48   49       1
    56   49   50       1
    57   50   54       1
    58   51   52       1
    59   51   54      am
    60   51   57       2
    61   54   56       1
    62   70   74       1
    63   47   58       1
    64   48   59       1
    65   48   60       1
    66   49   61       1
    67   49   62       1
    68   50   63       1
    69   50   64       1
    70   52   65       1
    71   52   66       1
    72   52   67       1
    73   30   68       1
    74   53   71      am
    75   69   70       1
    76   70   71       1
    77   71   72       2
    78   78   82       1
    79   69   73       1
    80   53   76       1
    81    1   77      am
    82   77   78       1
    83   78   79       1
    84   79   80       2
@<TRIPOS>SUBSTRUCTURE
     1 AHO801      1 GROUP             4 B     AHO     0 **** AHO B 801
     2 AHO802     23 GROUP             4 B     AHO     0 **** AHO B 802
     3 AHO803     46 GROUP             4 B     AHO     0 **** AHO B 803
     4 GLY804     69 RESIDUE           4 B     GLY     0 **** GLY B 804
     5 GLY806     77 RESIDUE           4 B     GLY     0 **** GLY B 806
