@<TRIPOS>MOLECULE
3ta2_ATP_3_ligand
   43    45     1     0     0
SMALL
NO_CHARGES


@<TRIPOS>ATOM
     1 PG           0.1860    24.8580     8.7230 P.3          1 ATP121   0.0000
     2 O1G          0.7120    25.0500     7.3350 O.co2        1 ATP121   0.0000
     3 O2G         -1.2970    24.5430     8.7590 O.co2        1 ATP121  -1.0000
     4 O3G          1.0080    23.8090     9.3970 O.co2        1 ATP121  -1.0000
     5 PB           1.6460    27.1580     9.5180 P.3          1 ATP121   0.0000
     6 O1B          2.7080    26.6130     8.5680 O.co2        1 ATP121   0.0000
     7 O2B          2.1390    27.5270    10.9560 O.co2        1 ATP121  -1.0000
     8 O3B          0.4030    26.1900     9.5960 O.3          1 ATP121   0.0000
     9 PA           0.4520    28.6740     7.4560 P.3          1 ATP121   0.0000
    10 O1A         -1.0390    28.4490     7.3590 O.co2        1 ATP121   0.0000
    11 O2A          1.3630    28.0320     6.3830 O.co2        1 ATP121  -1.0000
    12 O3A          0.9610    28.4360     8.9570 O.3          1 ATP121   0.0000
    13 O5'          0.7570    30.2920     7.3620 O.3          1 ATP121   0.0000
    14 C5'         -0.0710    31.0710     6.5390 C.3          1 ATP121   0.0000
    15 C4'          0.4540    32.5200     6.4350 C.3          1 ATP121   0.0000
    16 O4'          0.5980    33.0250     7.7710 O.3          1 ATP121   0.0000
    17 C3'          1.8650    32.5420     5.8770 C.3          1 ATP121   0.0000
    18 O3'          2.0040    32.2810     4.4430 O.3          1 ATP121   0.0000
    19 C2'          2.4470    33.8270     6.4170 C.3          1 ATP121   0.0000
    20 O2'          1.9080    34.8600     5.5450 O.3          1 ATP121   0.0000
    21 C1'          1.7590    33.9030     7.8060 C.3          1 ATP121   0.0000
    22 N9           2.6280    33.3990     8.8210 N.pl3        1 ATP121   0.0000
    23 C8           2.8240    32.1030     9.1840 C.2          1 ATP121   0.0000
    24 N7           3.6530    31.9990    10.1570 N.2          1 ATP121   0.0000
    25 C5           4.0190    33.3040    10.4690 C.ar         1 ATP121   0.0000
    26 C6           4.8800    33.8870    11.4380 C.ar         1 ATP121   0.0000
    27 N6           5.5390    33.1350    12.3640 N.pl3        1 ATP121   0.0000
    28 N1           5.0390    35.2710    11.5080 N.ar         1 ATP121   0.0000
    29 C2           4.3360    36.0220    10.6110 C.ar         1 ATP121   0.0000
    30 N3           3.4670    35.5580     9.6480 N.ar         1 ATP121   0.0000
    31 C4           3.3770    34.2080     9.6210 C.ar         1 ATP121   0.0000
    32 H5'1        -0.9940    31.0848     6.9235 H            1 ATP121   0.0000
    33 H5'2        -0.0967    30.6664     5.6248 H            1 ATP121   0.0000
    34 H4'         -0.1612    33.0926     5.8932 H            1 ATP121   0.0000
    35 H3'          2.3548    31.8029     6.3395 H            1 ATP121   0.0000
    36 H5           2.1196    31.2992     4.2926 H            1 ATP121   0.0000
    37 H2'          3.4459    33.8248     6.4648 H            1 ATP121   0.0000
    38 H7           2.2484    35.7538     5.8371 H            1 ATP121   0.0000
    39 H1'          1.4842    34.8422     8.0120 H            1 ATP121   0.0000
    40 H9           2.3755    31.3245     8.7449 H            1 ATP121   0.0000
    41 H10          6.1377    33.5765    13.0323 H            1 ATP121   0.0000
    42 H11          5.4238    32.1417    12.3752 H            1 ATP121   0.0000
    43 H12          4.4652    37.0125    10.6577 H            1 ATP121   0.0000
@<TRIPOS>BOND
     1    1    2      ar
     2    1    3      ar
     3    1    4      ar
     4    1    8       1
     5    5    6      ar
     6    5    7      ar
     7    5    8       1
     8    5   12       1
     9    9   10      ar
    10    9   11      ar
    11    9   12       1
    12    9   13       1
    13   13   14       1
    14   14   15       1
    15   15   16       1
    16   15   17       1
    17   16   21       1
    18   17   18       1
    19   17   19       1
    20   19   20       1
    21   19   21       1
    22   21   22       1
    23   22   23       1
    24   22   31       1
    25   23   24       2
    26   24   25       1
    27   25   26      ar
    28   25   31      ar
    29   26   27       1
    30   26   28      ar
    31   28   29      ar
    32   29   30      ar
    33   30   31      ar
    34   29   43       1
    35   27   42       1
    36   27   41       1
    37   23   40       1
    38   14   32       1
    39   14   33       1
    40   15   34       1
    41   17   35       1
    42   18   36       1
    43   19   37       1
    44   20   38       1
    45   21   39       1
@<TRIPOS>SUBSTRUCTURE
     1 ATP121      1 GROUP             4 C     ATP     0 **** ATP C 121
