@<TRIPOS>MOLECULE
3rpe_FAD_1_ligand
   84    89     1     0     0
SMALL
NO_CHARGES


@<TRIPOS>ATOM
     1 PA          61.6470    10.7720    10.2550 P.3          1 FAD195   0.0000
     2 O1A         62.5600    10.3130     9.1480 O.co2        1 FAD195   0.0000
     3 O2A         60.6430     9.8130    10.8490 O.co2        1 FAD195  -1.0000
     4 O5B         62.4740    11.3150    11.4900 O.3          1 FAD195   0.0000
     5 C5B         63.6210    12.1280    11.3150 C.3          1 FAD195   0.0000
     6 C4B         64.3950    12.2500    12.6290 C.3          1 FAD195   0.0000
     7 O4B         63.5840    12.9160    13.6060 O.3          1 FAD195   0.0000
     8 C3B         64.7770    10.9110    13.2400 C.3          1 FAD195   0.0000
     9 O3B         66.0240    11.0920    13.9060 O.3          1 FAD195   0.0000
    10 C2B         63.6610    10.6410    14.2190 C.3          1 FAD195   0.0000
    11 O2B         64.0360     9.7670    15.2760 O.3          1 FAD195   0.0000
    12 C1B         63.3650    12.0420    14.7260 C.3          1 FAD195   0.0000
    13 N9A         61.9910    12.2130    15.2400 N.pl3        1 FAD195   0.0000
    14 C8A         60.8860    12.3680    14.5130 C.2          1 FAD195   0.0000
    15 N7A         59.8280    12.5000    15.3380 N.2          1 FAD195   0.0000
    16 C5A         60.2840    12.4220    16.6080 C.ar         1 FAD195   0.0000
    17 C6A         59.6790    12.4920    17.8600 C.ar         1 FAD195   0.0000
    18 N6A         58.3410    12.6710    17.9840 N.pl3        1 FAD195   0.0000
    19 N1A         60.4550    12.3680    18.9640 N.ar         1 FAD195   0.0000
    20 C2A         61.7820    12.1950    18.8650 C.ar         1 FAD195   0.0000
    21 N3A         62.3900    12.1240    17.6740 N.ar         1 FAD195   0.0000
    22 C4A         61.6550    12.2410    16.5350 C.ar         1 FAD195   0.0000
    23 N1          66.1040    16.3900     2.3360 N.2          1 FAD195   0.0000
    24 C2          66.4960    17.5580     1.8050 C.2          1 FAD195   0.0000
    25 O2          66.9980    18.5000     2.5880 O.2          1 FAD195   0.0000
    26 N3          66.3770    17.8430     0.4960 N.pl3        1 FAD195   0.0000
    27 C4          65.9200    16.9510    -0.3760 C.2          1 FAD195   0.0000
    28 O4          65.8470    17.2350    -1.6590 O.2          1 FAD195   0.0000
    29 C4X         65.4980    15.6530     0.1450 C.2          1 FAD195   0.0000
    30 N5          65.0130    14.6910    -0.6830 N.2          1 FAD195   0.0000
    31 C5X         64.5610    13.5390    -0.1880 C.ar         1 FAD195   0.0000
    32 C6          64.0360    12.5850    -1.0640 C.ar         1 FAD195   0.0000
    33 C7          63.5700    11.3920    -0.5750 C.ar         1 FAD195   0.0000
    34 C7M         63.0020    10.4110    -1.5540 C.3          1 FAD195   0.0000
    35 C8          63.6660    11.1110     0.7790 C.ar         1 FAD195   0.0000
    36 C8M         63.1940     9.7900     1.3140 C.3          1 FAD195   0.0000
    37 C9          64.1950    12.0360     1.6640 C.ar         1 FAD195   0.0000
    38 C9A         64.6120    13.2770     1.1880 C.ar         1 FAD195   0.0000
    39 N10         65.2620    14.2290     2.0310 N.pl3        1 FAD195   0.0000
    40 C10         65.5720    15.4690     1.5140 C.2          1 FAD195   0.0000
    41 C1'         65.1170    14.0950     3.4980 C.3          1 FAD195   0.0000
    42 C2'         63.7430    14.3160     4.0590 C.3          1 FAD195   0.0000
    43 O2'         63.4270    15.7110     3.9700 O.3          1 FAD195   0.0000
    44 C3'         63.6890    13.8910     5.5160 C.3          1 FAD195   0.0000
    45 O3'         63.8340    12.4780     5.5080 O.3          1 FAD195   0.0000
    46 C4'         62.3730    14.2960     6.1930 C.3          1 FAD195   0.0000
    47 O4'         62.2830    15.7260     6.3230 O.3          1 FAD195   0.0000
    48 C5'         62.2380    13.7280     7.5970 C.3          1 FAD195   0.0000
    49 O5'         60.8900    13.9050     8.0280 O.3          1 FAD195   0.0000
    50 P           60.0930    12.6050     8.4950 P.3          1 FAD195   0.0000
    51 O1P         58.7710    13.1040     8.9600 O.co2        1 FAD195   0.0000
    52 O2P         60.1710    11.5360     7.4440 O.co2        1 FAD195  -1.0000
    53 O3P         60.8920    12.1320     9.8380 O.3          1 FAD195   0.0000
    54 H5B1        63.3366    13.0384    11.0145 H            1 FAD195   0.0000
    55 H5B2        64.2127    11.7177    10.6211 H            1 FAD195   0.0000
    56 H4B         65.2242    12.7863    12.4717 H            1 FAD195   0.0000
    57 H3B         64.8345    10.1948    12.5445 H            1 FAD195   0.0000
    58 H5          66.0938    12.0347    14.2324 H            1 FAD195   0.0000
    59 H2B         62.8642    10.2751    13.7381 H            1 FAD195   0.0000
    60 H7          64.3212     8.8872    14.8957 H            1 FAD195   0.0000
    61 H1B         64.0152    12.2709    15.4505 H            1 FAD195   0.0000
    62 H8A         60.8472    12.3839    13.5139 H            1 FAD195   0.0000
    63 H6A1        57.9250    12.7187    18.8921 H            1 FAD195   0.0000
    64 H6A2        57.7700    12.7553    17.1674 H            1 FAD195   0.0000
    65 H2A         62.3287    12.1174    19.6987 H            1 FAD195   0.0000
    66 H13         66.6397    18.7512     0.1702 H            1 FAD195   0.0000
    67 H14         64.0003    12.7722    -2.0457 H            1 FAD195   0.0000
    68 H7M1        62.7016     9.5905    -1.0676 H            1 FAD195   0.0000
    69 H7M2        62.2223    10.8235    -2.0250 H            1 FAD195   0.0000
    70 H7M3        63.7029    10.1640    -2.2231 H            1 FAD195   0.0000
    71 H8M1        63.3381     9.7603     2.3031 H            1 FAD195   0.0000
    72 H8M2        62.2202     9.6787     1.1155 H            1 FAD195   0.0000
    73 H8M3        63.7093     9.0512     0.8797 H            1 FAD195   0.0000
    74 H21         64.2768    11.8149     2.6358 H            1 FAD195   0.0000
    75 H1'1        65.7300    14.7593     3.9256 H            1 FAD195   0.0000
    76 H1'2        65.4018    13.1696     3.7480 H            1 FAD195   0.0000
    77 H2'         63.0774    13.7879     3.5316 H            1 FAD195   0.0000
    78 H25         62.9820    15.8967     3.0940 H            1 FAD195   0.0000
    79 H3'         64.4561    14.3006     6.0098 H            1 FAD195   0.0000
    80 H27         64.2825    12.1842     6.3521 H            1 FAD195   0.0000
    81 H4'         61.6081    13.9716     5.6364 H            1 FAD195   0.0000
    82 H29         62.7829    16.1609     5.5740 H            1 FAD195   0.0000
    83 H5'1        62.8567    14.2103     8.2171 H            1 FAD195   0.0000
    84 H5'2        62.4651    12.7541     7.5904 H            1 FAD195   0.0000
@<TRIPOS>BOND
     1    1    2      ar
     2    1    3      ar
     3    1    4       1
     4    1   53       1
     5    4    5       1
     6    5    6       1
     7    6    7       1
     8    6    8       1
     9    7   12       1
    10    8    9       1
    11    8   10       1
    12   10   11       1
    13   10   12       1
    14   12   13       1
    15   13   14       1
    16   13   22       1
    17   14   15       2
    18   15   16       1
    19   16   17      ar
    20   16   22      ar
    21   17   18       1
    22   17   19      ar
    23   19   20      ar
    24   20   21      ar
    25   21   22      ar
    26   23   24       1
    27   23   40       2
    28   24   25       2
    29   24   26       1
    30   26   27       1
    31   27   28       2
    32   27   29       1
    33   29   30       2
    34   29   40       1
    35   30   31       1
    36   31   32      ar
    37   31   38      ar
    38   32   33      ar
    39   33   34       1
    40   33   35      ar
    41   35   36       1
    42   35   37      ar
    43   37   38      ar
    44   38   39       1
    45   39   40       1
    46   39   41       1
    47   41   42       1
    48   42   43       1
    49   42   44       1
    50   44   45       1
    51   44   46       1
    52   46   47       1
    53   46   48       1
    54   48   49       1
    55   49   50       1
    56   50   51      ar
    57   50   52      ar
    58   50   53       1
    59   48   84       1
    60    5   54       1
    61    5   55       1
    62    6   56       1
    63    8   57       1
    64    9   58       1
    65   10   59       1
    66   11   60       1
    67   12   61       1
    68   14   62       1
    69   18   63       1
    70   18   64       1
    71   20   65       1
    72   26   66       1
    73   32   67       1
    74   34   68       1
    75   34   69       1
    76   34   70       1
    77   36   71       1
    78   36   72       1
    79   36   73       1
    80   37   74       1
    81   41   75       1
    82   41   76       1
    83   42   77       1
    84   43   78       1
    85   44   79       1
    86   45   80       1
    87   46   81       1
    88   47   82       1
    89   48   83       1
@<TRIPOS>SUBSTRUCTURE
     1 FAD195      1 GROUP             4 A     FAD     0 **** FAD A 195
