@<TRIPOS>MOLECULE
2bac_FAD_1_ligand
   84    89     1     0     0
SMALL
NO_CHARGES


@<TRIPOS>ATOM
     1 PA          -7.0530     2.2370   -11.2150 P.3          1 FAD500   0.0000
     2 O1A         -7.2390     0.7770   -10.9710 O.co2        1 FAD500   0.0000
     3 O2A         -7.9340     3.1190   -10.3640 O.co2        1 FAD500  -1.0000
     4 O5B         -5.4960     2.6050   -11.0750 O.3          1 FAD500   0.0000
     5 C5B         -4.9720     3.9090   -11.2660 C.3          1 FAD500   0.0000
     6 C4B         -3.5340     3.9580   -10.7340 C.3          1 FAD500   0.0000
     7 O4B         -3.0130     5.2720   -10.8620 O.3          1 FAD500   0.0000
     8 C3B         -3.4340     3.5710    -9.2580 C.3          1 FAD500   0.0000
     9 O3B         -2.3670     2.6630    -8.9880 O.3          1 FAD500   0.0000
    10 C2B         -3.2680     4.9070    -8.5670 C.3          1 FAD500   0.0000
    11 O2B         -2.5710     4.8580    -7.3440 O.3          1 FAD500   0.0000
    12 C1B         -2.5110     5.7010    -9.6030 C.3          1 FAD500   0.0000
    13 N9A         -2.6040     7.1650    -9.4390 N.pl3        1 FAD500   0.0000
    14 C8A         -3.6900     7.9320    -9.1000 C.2          1 FAD500   0.0000
    15 N7A         -3.3020     9.2280    -9.0840 N.2          1 FAD500   0.0000
    16 C5A         -1.9920     9.3030    -9.4190 C.ar         1 FAD500   0.0000
    17 C6A         -1.1040    10.3780    -9.5540 C.ar         1 FAD500   0.0000
    18 N6A         -1.5280    11.6330    -9.4350 N.pl3        1 FAD500   0.0000
    19 N1A          0.2010    10.1190    -9.9140 N.ar         1 FAD500   0.0000
    20 C2A          0.6180     8.8080   -10.1410 C.ar         1 FAD500   0.0000
    21 N3A         -0.2610     7.7460   -10.0050 N.ar         1 FAD500   0.0000
    22 C4A         -1.5410     7.9980    -9.6440 C.ar         1 FAD500   0.0000
    23 N1         -13.2840    -4.7250   -12.5310 N.2          1 FAD500   0.0000
    24 C2         -13.4910    -5.9180   -13.1800 C.2          1 FAD500   0.0000
    25 O2         -13.1170    -6.0130   -14.3480 O.2          1 FAD500   0.0000
    26 N3         -14.1070    -6.9780   -12.5290 N.pl3        1 FAD500   0.0000
    27 C4         -14.5050    -6.8600   -11.2120 C.2          1 FAD500   0.0000
    28 O4         -15.0540    -7.8210   -10.6440 O.2          1 FAD500   0.0000
    29 C4X        -14.2910    -5.6510   -10.5400 C.2          1 FAD500   0.0000
    30 N5         -14.7420    -5.4520    -9.2500 N.2          1 FAD500   0.0000
    31 C5X        -14.4140    -4.3120    -8.5560 C.ar         1 FAD500   0.0000
    32 C6         -14.7460    -4.2190    -7.2080 C.ar         1 FAD500   0.0000
    33 C7         -14.3370    -3.0950    -6.4820 C.ar         1 FAD500   0.0000
    34 C7M        -14.6960    -2.9970    -5.0240 C.3          1 FAD500   0.0000
    35 C8         -13.5780    -2.0930    -7.1150 C.ar         1 FAD500   0.0000
    36 C8M        -13.1120    -0.8610    -6.3840 C.3          1 FAD500   0.0000
    37 C9         -13.2500    -2.2100    -8.4700 C.ar         1 FAD500   0.0000
    38 C9A        -13.6700    -3.3140    -9.1980 C.ar         1 FAD500   0.0000
    39 N10        -13.4000    -3.4320   -10.5590 N.pl3        1 FAD500   0.0000
    40 C10        -13.6700    -4.6030   -11.2100 C.2          1 FAD500   0.0000
    41 C1'        -12.9630    -2.2740   -11.4080 C.3          1 FAD500   0.0000
    42 C2'        -11.4710    -2.3370   -11.7590 C.3          1 FAD500   0.0000
    43 O2'        -10.6870    -2.6950   -10.6350 O.3          1 FAD500   0.0000
    44 C3'        -11.0200    -0.9990   -12.3180 C.3          1 FAD500   0.0000
    45 O3'        -11.8780    -0.5890   -13.3680 O.3          1 FAD500   0.0000
    46 C4'         -9.6140    -1.0510   -12.8870 C.3          1 FAD500   0.0000
    47 O4'         -8.6920    -1.3610   -11.8730 O.3          1 FAD500   0.0000
    48 C5'         -9.2690     0.3050   -13.4890 C.3          1 FAD500   0.0000
    49 O5'         -7.8800     0.3550   -13.7260 O.3          1 FAD500   0.0000
    50 P           -7.1820     1.7580   -14.0320 P.3          1 FAD500   0.0000
    51 O1P         -5.7060     1.5370   -14.3060 O.co2        1 FAD500   0.0000
    52 O2P         -7.9470     2.4120   -15.1540 O.co2        1 FAD500  -1.0000
    53 O3P         -7.4120     2.6450   -12.7280 O.3          1 FAD500   0.0000
    54 H5B1        -5.5345     4.5712   -10.7710 H            1 FAD500   0.0000
    55 H5B2        -4.9756     4.1314   -12.2410 H            1 FAD500   0.0000
    56 H4B         -2.9688     3.3322   -11.2715 H            1 FAD500   0.0000
    57 H3B         -4.2972     3.1575    -8.9685 H            1 FAD500   0.0000
    58 H5          -1.5371     3.1781    -8.7736 H            1 FAD500   0.0000
    59 H2B         -4.1668     5.3207    -8.4217 H            1 FAD500   0.0000
    60 H7          -1.6511     4.4978    -7.4988 H            1 FAD500   0.0000
    61 H1B         -1.5464     5.4428    -9.5487 H            1 FAD500   0.0000
    62 H8A         -4.6088     7.5921    -8.8995 H            1 FAD500   0.0000
    63 H6A1        -0.8825    12.3903    -9.5339 H            1 FAD500   0.0000
    64 H6A2        -2.4923    11.8192    -9.2467 H            1 FAD500   0.0000
    65 H2A          1.5660     8.6317   -10.4060 H            1 FAD500   0.0000
    66 H13        -14.2641    -7.8356   -13.0187 H            1 FAD500   0.0000
    67 H14        -15.2700    -4.9458    -6.7640 H            1 FAD500   0.0000
    68 H7M1       -14.3355    -2.1431    -4.6486 H            1 FAD500   0.0000
    69 H7M2       -15.6909    -3.0113    -4.9240 H            1 FAD500   0.0000
    70 H7M3       -14.3002    -3.7715    -4.5305 H            1 FAD500   0.0000
    71 H8M1       -12.5916    -0.2793    -7.0092 H            1 FAD500   0.0000
    72 H8M2       -13.9048    -0.3568    -6.0415 H            1 FAD500   0.0000
    73 H8M3       -12.5303    -1.1291    -5.6161 H            1 FAD500   0.0000
    74 H21        -12.7108    -1.4953    -8.9155 H            1 FAD500   0.0000
    75 H1'1       -13.1402    -1.4254   -10.9096 H            1 FAD500   0.0000
    76 H1'2       -13.4930    -2.2794   -12.2560 H            1 FAD500   0.0000
    77 H2'        -11.3433    -3.0325   -12.4661 H            1 FAD500   0.0000
    78 H25         -9.7813    -2.2785   -10.7140 H            1 FAD500   0.0000
    79 H3'        -11.0500    -0.3156   -11.5886 H            1 FAD500   0.0000
    80 H27        -11.9125     0.4099   -13.3995 H            1 FAD500   0.0000
    81 H4'         -9.5705    -1.7509   -13.5999 H            1 FAD500   0.0000
    82 H29         -8.3654    -0.5159   -11.4497 H            1 FAD500   0.0000
    83 H5'1        -9.5280     1.0314   -12.8524 H            1 FAD500   0.0000
    84 H5'2        -9.7618     0.4257   -14.3507 H            1 FAD500   0.0000
@<TRIPOS>BOND
     1    1    2      ar
     2    1    3      ar
     3    1    4       1
     4    1   53       1
     5    4    5       1
     6    5    6       1
     7    6    7       1
     8    6    8       1
     9    7   12       1
    10    8    9       1
    11    8   10       1
    12   10   11       1
    13   10   12       1
    14   12   13       1
    15   13   14       1
    16   13   22       1
    17   14   15       2
    18   15   16       1
    19   16   17      ar
    20   16   22      ar
    21   17   18       1
    22   17   19      ar
    23   19   20      ar
    24   20   21      ar
    25   21   22      ar
    26   23   24       1
    27   23   40       2
    28   24   25       2
    29   24   26       1
    30   26   27       1
    31   27   28       2
    32   27   29       1
    33   29   30       2
    34   29   40       1
    35   30   31       1
    36   31   32      ar
    37   31   38      ar
    38   32   33      ar
    39   33   34       1
    40   33   35      ar
    41   35   36       1
    42   35   37      ar
    43   37   38      ar
    44   38   39       1
    45   39   40       1
    46   39   41       1
    47   41   42       1
    48   42   43       1
    49   42   44       1
    50   44   45       1
    51   44   46       1
    52   46   47       1
    53   46   48       1
    54   48   49       1
    55   49   50       1
    56   50   51      ar
    57   50   52      ar
    58   50   53       1
    59   48   84       1
    60    5   54       1
    61    5   55       1
    62    6   56       1
    63    8   57       1
    64    9   58       1
    65   10   59       1
    66   11   60       1
    67   12   61       1
    68   14   62       1
    69   18   63       1
    70   18   64       1
    71   20   65       1
    72   26   66       1
    73   32   67       1
    74   34   68       1
    75   34   69       1
    76   34   70       1
    77   36   71       1
    78   36   72       1
    79   36   73       1
    80   37   74       1
    81   41   75       1
    82   41   76       1
    83   42   77       1
    84   43   78       1
    85   44   79       1
    86   45   80       1
    87   46   81       1
    88   47   82       1
    89   48   83       1
@<TRIPOS>SUBSTRUCTURE
     1 FAD500      1 GROUP             4 A     FAD     0 **** FAD A 500
