@<TRIPOS>MOLECULE
2rhg_IGP_1_ligand
   31    32     1     0     0
SMALL
NO_CHARGES


@<TRIPOS>ATOM
     1 C1          47.9320    28.5370    12.3670 C.3          1 IGP269   0.0000
     2 P           48.1380    29.3540     9.8490 P.3          1 IGP269   0.0000
     3 OP1         49.4530    30.1380    10.2380 O.co2        1 IGP269   0.0000
     4 OP2         46.8840    30.3890     9.8360 O.co2        1 IGP269  -1.0000
     5 OP3         48.1860    28.7860     8.4230 O.co2        1 IGP269  -1.0000
     6 OP4         47.8100    28.2100    10.9230 O.3          1 IGP269   0.0000
     7 C2          49.2310    27.9090    12.8950 C.3          1 IGP269   0.0000
     8 O2          50.3580    28.6520    12.4240 O.3          1 IGP269   0.0000
     9 C3          49.2850    27.8380    14.4410 C.3          1 IGP269   0.0000
    10 O3          48.1650    27.0930    14.9850 O.3          1 IGP269   0.0000
    11 CG          50.6200    27.1920    14.8430 C.2          1 IGP269   0.0000
    12 CD2         50.9850    25.7740    14.7900 C.ar         1 IGP269   0.0000
    13 CE2         52.3220    25.7020    15.2610 C.ar         1 IGP269   0.0000
    14 CE3         50.3330    24.5360    14.3270 C.ar         1 IGP269   0.0000
    15 CD1         51.6630    27.8430    15.3500 C.2          1 IGP269   0.0000
    16 NE1         52.7030    26.8970    15.6000 N.pl3        1 IGP269   0.0000
    17 CZ2         53.0490    24.4790    15.3660 C.ar         1 IGP269   0.0000
    18 CZ3         51.0960    23.2790    14.4380 C.ar         1 IGP269   0.0000
    19 CH2         52.4270    23.2660    14.9360 C.ar         1 IGP269   0.0000
    20 H1          47.1492    28.1645    12.8655 H            1 IGP269   0.0000
    21 H2          47.9625    29.5292    12.4877 H            1 IGP269   0.0000
    22 H3          49.2973    26.9780    12.5361 H            1 IGP269   0.0000
    23 H4          50.1418    29.0586    11.5363 H            1 IGP269   0.0000
    24 H5          49.2574    28.7689    14.8053 H            1 IGP269   0.0000
    25 H6          47.8768    26.3969    14.3274 H            1 IGP269   0.0000
    26 HE3         49.4064    24.5480    13.9511 H            1 IGP269   0.0000
    27 HD1         51.7107    28.8262    15.5259 H            1 IGP269   0.0000
    28 HE1         53.5990    27.1226    15.9824 H            1 IGP269   0.0000
    29 HZ2         53.9786    24.4705    15.7344 H            1 IGP269   0.0000
    30 HZ3         50.6688    22.4195    14.1575 H            1 IGP269   0.0000
    31 HH2         52.9310    22.4037    14.9858 H            1 IGP269   0.0000
@<TRIPOS>BOND
     1    1    6       1
     2    1    7       1
     3    2    3      ar
     4    2    4      ar
     5    2    5      ar
     6    2    6       1
     7    7    8       1
     8    7    9       1
     9    9   10       1
    10    9   11       1
    11   11   12       1
    12   11   15       2
    13   12   13      ar
    14   12   14      ar
    15   13   16       1
    16   13   17      ar
    17   14   18      ar
    18   15   16       1
    19   17   19      ar
    20   18   19      ar
    21    1   20       1
    22    1   21       1
    23   19   31       1
    24   18   30       1
    25    7   22       1
    26    8   23       1
    27    9   24       1
    28   10   25       1
    29   14   26       1
    30   15   27       1
    31   16   28       1
    32   17   29       1
@<TRIPOS>SUBSTRUCTURE
     1 IGP269      1 GROUP             4 A     IGP     0 **** IGP A 269
