@<TRIPOS>MOLECULE
4dmg_SAM_1_ligand
   50    52     1     0     0
SMALL
NO_CHARGES


@<TRIPOS>ATOM
     1 N           58.7190    25.9520    78.9780 N.4          1 SAM401   1.0000
     2 CA          57.9100    26.4530    77.8730 C.3          1 SAM401   0.0000
     3 C           57.0390    27.6360    78.2770 C.2          1 SAM401   0.0000
     4 O           56.2980    28.1780    77.4440 O.co2        1 SAM401   0.0000
     5 OXT         57.0490    28.0590    79.4360 O.co2        1 SAM401  -1.0000
     6 CB          57.0250    25.3540    77.2950 C.3          1 SAM401   0.0000
     7 CG          57.7380    24.0320    77.0150 C.3          1 SAM401   0.0000
     8 SD          56.6800    22.9440    76.0250 S.3          1 SAM401   1.0000
     9 CE          55.8900    21.9840    77.3490 C.3          1 SAM401   0.0000
    10 C5'         57.8770    21.7610    75.3560 C.3          1 SAM401   0.0000
    11 C4'         58.8520    22.3700    74.3470 C.3          1 SAM401   0.0000
    12 O4'         59.8420    21.4220    74.0310 O.3          1 SAM401   0.0000
    13 C3'         58.2560    22.7460    73.0020 C.3          1 SAM401   0.0000
    14 O3'         58.5700    24.1080    72.8140 O.3          1 SAM401   0.0000
    15 C2'         58.9970    21.8990    71.9650 C.3          1 SAM401   0.0000
    16 O2'         59.3570    22.6390    70.8340 O.3          1 SAM401   0.0000
    17 C1'         60.2770    21.5860    72.6910 C.3          1 SAM401   0.0000
    18 N9          60.9230    20.3020    72.4380 N.pl3        1 SAM401   0.0000
    19 C8          60.3700    19.0740    72.2250 C.2          1 SAM401   0.0000
    20 N7          61.3750    18.1710    72.1510 N.2          1 SAM401   0.0000
    21 C5          62.5550    18.8110    72.3430 C.ar         1 SAM401   0.0000
    22 C6          63.8810    18.3960    72.3730 C.ar         1 SAM401   0.0000
    23 N6          64.2280    17.1220    72.1920 N.pl3        1 SAM401   0.0000
    24 N1          64.8520    19.3370    72.6060 N.ar         1 SAM401   0.0000
    25 C2          64.5430    20.6640    72.7920 C.ar         1 SAM401   0.0000
    26 N3          63.2310    21.0740    72.7490 N.ar         1 SAM401   0.0000
    27 C4          62.2720    20.1520    72.5370 C.ar         1 SAM401   0.0000
    28 H1          58.2105    25.2452    79.4698 H            1 SAM401   0.0000
    29 H2          59.5682    25.5636    78.6201 H            1 SAM401   0.0000
    30 HA          58.5306    26.7599    77.1514 H            1 SAM401   0.0000
    31 HB1         56.6391    25.6867    76.4346 H            1 SAM401   0.0000
    32 HB2         56.2862    25.1765    77.9451 H            1 SAM401   0.0000
    33 HG1         57.9530    23.5831    77.8823 H            1 SAM401   0.0000
    34 HG2         58.5846    24.2134    76.5146 H            1 SAM401   0.0000
    35 HE1         55.2581    21.3206    76.9482 H            1 SAM401   0.0000
    36 HE2         56.5907    21.5015    77.8745 H            1 SAM401   0.0000
    37 HE3         55.3862    22.6013    77.9532 H            1 SAM401   0.0000
    38 H5'1        57.3733    21.0255    74.9028 H            1 SAM401   0.0000
    39 H5'2        58.4056    21.3837    76.1164 H            1 SAM401   0.0000
    40 H4'         59.2847    23.1754    74.7521 H            1 SAM401   0.0000
    41 H3'         57.2693    22.5856    72.9755 H            1 SAM401   0.0000
    42 H15         59.5632    24.2247    72.8174 H            1 SAM401   0.0000
    43 H2'         58.4898    21.0711    71.7255 H            1 SAM401   0.0000
    44 H17         60.2643    23.0366    70.9707 H            1 SAM401   0.0000
    45 H1'         60.9295    22.3397    72.6132 H            1 SAM401   0.0000
    46 H19         59.3937    18.8757    72.1387 H            1 SAM401   0.0000
    47 H20         65.1920    16.8575    72.2198 H            1 SAM401   0.0000
    48 H21         63.5244    16.4305    72.0283 H            1 SAM401   0.0000
    49 H22         65.2707    21.3294    72.9582 H            1 SAM401   0.0000
    50 H23         58.9332    26.7036    79.6019 H            1 SAM401   0.0000
@<TRIPOS>BOND
     1    1    2       1
     2    2    3       1
     3    2    6       1
     4    3    4      ar
     5    3    5      ar
     6    6    7       1
     7    7    8       1
     8    8    9       1
     9    8   10       1
    10   10   11       1
    11   11   12       1
    12   11   13       1
    13   12   17       1
    14   13   14       1
    15   13   15       1
    16   15   16       1
    17   15   17       1
    18   17   18       1
    19   18   19       1
    20   18   27       1
    21   19   20       2
    22   20   21       1
    23   21   22      ar
    24   21   27      ar
    25   22   23       1
    26   22   24      ar
    27   24   25      ar
    28   25   26      ar
    29   26   27      ar
    30    1   28       1
    31    1   29       1
    32    2   30       1
    33    1   50       1
    34    6   31       1
    35    6   32       1
    36    7   33       1
    37    7   34       1
    38    9   35       1
    39    9   36       1
    40    9   37       1
    41   10   38       1
    42   10   39       1
    43   11   40       1
    44   13   41       1
    45   14   42       1
    46   15   43       1
    47   16   44       1
    48   17   45       1
    49   19   46       1
    50   23   47       1
    51   23   48       1
    52   25   49       1
@<TRIPOS>SUBSTRUCTURE
     1 SAM401      1 GROUP             4 A     SAM     0 **** SAM A 401
