@<TRIPOS>MOLECULE
2q55_MU0_1_ligand
   93    97     1     0     0
SMALL
NO_CHARGES


@<TRIPOS>ATOM
     1 O5          18.6510    32.5180    13.8040 O.2          1 MU0200   0.0000
     2 C26         18.3230    32.3600    14.9860 C.2          1 MU0200   0.0000
     3 C27         17.0020    32.9580    15.4550 C.3          1 MU0200   0.0000
     4 O28         16.5830    32.5760    16.7840 O.3          1 MU0200   0.0000
     5 C30         15.9920    33.7530    17.3750 C.2          1 MU0200   0.0000
     6 O30         15.3650    33.7590    18.4220 O.2          1 MU0200   0.0000
     7 N31         16.2380    34.8040    16.6120 N.am         1 MU0200   0.0000
     8 C32         17.0210    34.4920    15.4250 C.3          1 MU0200   0.0000
     9 C33         15.9240    36.1130    17.0290 C.ar         1 MU0200   0.0000
    10 C38         14.6340    36.4350    17.4360 C.ar         1 MU0200   0.0000
    11 C37         14.3410    37.7280    17.8560 C.ar         1 MU0200   0.0000
    12 C36         15.3310    38.6990    17.8820 C.ar         1 MU0200   0.0000
    13 C35         16.6190    38.3750    17.4850 C.ar         1 MU0200   0.0000
    14 C34         16.9130    37.0860    17.0580 C.ar         1 MU0200   0.0000
    15 N4          19.0720    31.6510    15.8420 N.am         1 MU0200   0.0000
    16 C25         20.2740    30.9420    15.4000 C.3          1 MU0200   0.0000
    17 C29         21.5180    31.4370    16.1380 C.3          1 MU0200   0.0000
    18 C4          21.7520    32.8990    15.8760 C.ar         1 MU0200   0.0000
    19 C9          22.1980    33.3110    14.6260 C.ar         1 MU0200   0.0000
    20 C8          22.4140    34.6550    14.3870 C.ar         1 MU0200   0.0000
    21 C5          21.5200    33.8440    16.8840 C.ar         1 MU0200   0.0000
    22 C6          21.7370    35.2000    16.6380 C.ar         1 MU0200   0.0000
    23 C7          22.1830    35.6040    15.3860 C.ar         1 MU0200   0.0000
    24 C24         20.1340    29.4300    15.6030 C.3          1 MU0200   0.0000
    25 O4          19.9170    29.1300    16.9890 O.3          1 MU0200   0.0000
    26 C23         18.9610    28.8070    14.8480 C.3          1 MU0200   0.0000
    27 C12         19.1670    28.6470    13.3470 C.3          1 MU0200   0.0000
    28 N3          20.4560    28.0440    13.0440 N.am         1 MU0200   0.0000
    29 C11         21.3020    28.5020    12.1140 C.2          1 MU0200   0.0000
    30 O2          21.1400    29.5080    11.4360 O.2          1 MU0200   0.0000
    31 C10         22.5040    27.6150    11.8970 C.3          1 MU0200   0.0000
    32 C13         23.7960    28.4390    11.9200 C.3          1 MU0200   0.0000
    33 C14         23.8640    29.2340    13.2210 C.3          1 MU0200   0.0000
    34 C15         24.9990    27.5290    11.7340 C.3          1 MU0200   0.0000
    35 N1          22.3800    26.8110    10.6580 N.am         1 MU0200   0.0000
    36 C2          22.3410    27.5590     9.3990 C.3          1 MU0200   0.0000
    37 C39         23.0260    26.6630     8.3790 C.3          1 MU0200   0.0000
    38 C3          22.2320    25.4820    10.7600 C.2          1 MU0200   0.0000
    39 O1          22.1330    24.9370    11.8530 O.2          1 MU0200   0.0000
    40 N2          22.1630    24.7630     9.6380 N.am         1 MU0200   0.0000
    41 C1          22.2630    25.3450     8.3120 C.3          1 MU0200   0.0000
    42 C22         18.0310    27.7420    12.8820 C.3          1 MU0200   0.0000
    43 C20         18.0500    27.5000    11.3980 C.ar         1 MU0200   0.0000
    44 C19         18.6210    26.3450    10.8760 C.ar         1 MU0200   0.0000
    45 C18         18.6170    26.1360     9.5030 C.ar         1 MU0200   0.0000
    46 C17         18.0340    27.0700     8.6600 C.ar         1 MU0200   0.0000
    47 C16         17.4520    28.2100     9.1920 C.ar         1 MU0200   0.0000
    48 C21         17.4660    28.4270    10.5620 C.ar         1 MU0200   0.0000
    49 H1          16.2929    32.6546    14.8185 H            1 MU0200   0.0000
    50 H2          16.5892    34.8483    14.5964 H            1 MU0200   0.0000
    51 H3          17.9525    34.8490    15.4954 H            1 MU0200   0.0000
    52 H4          13.9175    35.7374    17.4267 H            1 MU0200   0.0000
    53 H5          13.4107    37.9591    18.1410 H            1 MU0200   0.0000
    54 H6          15.1169    39.6275    18.1854 H            1 MU0200   0.0000
    55 H7          17.3376    39.0701    17.5060 H            1 MU0200   0.0000
    56 H8          17.8430    36.8580    16.7698 H            1 MU0200   0.0000
    57 H9          18.8037    31.6053    16.8042 H            1 MU0200   0.0000
    58 H10         20.3991    31.1165    14.4233 H            1 MU0200   0.0000
    59 H11         22.3128    30.9171    15.8249 H            1 MU0200   0.0000
    60 H12         21.3935    31.2964    17.1202 H            1 MU0200   0.0000
    61 H13         22.3617    32.6390    13.9037 H            1 MU0200   0.0000
    62 H14         22.7392    34.9515    13.4891 H            1 MU0200   0.0000
    63 H15         21.1979    33.5456    17.7825 H            1 MU0200   0.0000
    64 H16         21.5729    35.8754    17.3569 H            1 MU0200   0.0000
    65 H17         22.3387    36.5741    15.1997 H            1 MU0200   0.0000
    66 H18         20.9795    28.9860    15.3064 H            1 MU0200   0.0000
    67 H19         20.7977    28.9917    17.4420 H            1 MU0200   0.0000
    68 H20         18.1587    29.3868    14.9901 H            1 MU0200   0.0000
    69 H21         18.7902    27.9009    15.2351 H            1 MU0200   0.0000
    70 H22         19.0958    29.5379    12.8983 H            1 MU0200   0.0000
    71 H23         20.7273    27.2345    13.5647 H            1 MU0200   0.0000
    72 H24         22.5448    26.9753    12.6645 H            1 MU0200   0.0000
    73 H25         23.7701    29.0855    11.1576 H            1 MU0200   0.0000
    74 H26         24.7063    29.7728    13.2388 H            1 MU0200   0.0000
    75 H27         23.0754    29.8462    13.2792 H            1 MU0200   0.0000
    76 H28         23.8549    28.6040    13.9975 H            1 MU0200   0.0000
    77 H29         25.8362    28.0757    11.7505 H            1 MU0200   0.0000
    78 H30         25.0256    26.8563    12.4734 H            1 MU0200   0.0000
    79 H31         24.9268    27.0563    10.8557 H            1 MU0200   0.0000
    80 H32         22.8325    28.4250     9.4907 H            1 MU0200   0.0000
    81 H33         21.3955    27.7394     9.1278 H            1 MU0200   0.0000
    82 H34         23.9709    26.4930     8.6586 H            1 MU0200   0.0000
    83 H35         23.0182    27.1044     7.4817 H            1 MU0200   0.0000
    84 H36         22.0361    23.7740     9.7145 H            1 MU0200   0.0000
    85 H37         22.7472    24.7121     7.7079 H            1 MU0200   0.0000
    86 H38         21.3446    25.5116     7.9531 H            1 MU0200   0.0000
    87 H39         17.1609    28.1709    13.1248 H            1 MU0200   0.0000
    88 H40         18.1111    26.8621    13.3504 H            1 MU0200   0.0000
    89 H41         19.0326    25.6680    11.4861 H            1 MU0200   0.0000
    90 H42         19.0349    25.3113     9.1220 H            1 MU0200   0.0000
    91 H43         18.0334    26.9215     7.6711 H            1 MU0200   0.0000
    92 H44         17.0205    28.8783     8.5861 H            1 MU0200   0.0000
    93 H45         17.0531    29.2546    10.9423 H            1 MU0200   0.0000
@<TRIPOS>BOND
     1    1    2       2
     2    2    3       1
     3    2   15      am
     4    3    4       1
     5    3    8       1
     6    4    5       1
     7    5    6       2
     8    5    7      am
     9    7    8       1
    10    7    9       1
    11    9   10      ar
    12    9   14      ar
    13   10   11      ar
    14   11   12      ar
    15   12   13      ar
    16   13   14      ar
    17   15   16       1
    18   16   17       1
    19   16   24       1
    20   17   18       1
    21   18   19      ar
    22   18   21      ar
    23   19   20      ar
    24   20   23      ar
    25   21   22      ar
    26   22   23      ar
    27   24   25       1
    28   24   26       1
    29   26   27       1
    30   27   28       1
    31   27   42       1
    32   28   29      am
    33   29   30       2
    34   29   31       1
    35   31   32       1
    36   31   35       1
    37   32   33       1
    38   32   34       1
    39   35   36       1
    40   35   38      am
    41   36   37       1
    42   37   41       1
    43   38   39       2
    44   38   40      am
    45   40   41       1
    46   42   43       1
    47   43   44      ar
    48   43   48      ar
    49   44   45      ar
    50   45   46      ar
    51   46   47      ar
    52   47   48      ar
    53    3   49       1
    54    8   50       1
    55    8   51       1
    56   10   52       1
    57   11   53       1
    58   12   54       1
    59   13   55       1
    60   14   56       1
    61   15   57       1
    62   16   58       1
    63   17   59       1
    64   17   60       1
    65   19   61       1
    66   20   62       1
    67   21   63       1
    68   22   64       1
    69   23   65       1
    70   24   66       1
    71   25   67       1
    72   26   68       1
    73   26   69       1
    74   27   70       1
    75   28   71       1
    76   31   72       1
    77   32   73       1
    78   33   74       1
    79   33   75       1
    80   33   76       1
    81   34   77       1
    82   34   78       1
    83   34   79       1
    84   36   80       1
    85   36   81       1
    86   37   82       1
    87   37   83       1
    88   40   84       1
    89   41   85       1
    90   41   86       1
    91   42   87       1
    92   42   88       1
    93   44   89       1
    94   45   90       1
    95   46   91       1
    96   47   92       1
    97   48   93       1
@<TRIPOS>SUBSTRUCTURE
     1 MU0200      1 GROUP             4 B     MU0     0 **** MU0 B 200
