@<TRIPOS>MOLECULE
3k1j_ADP_1_ligand
   39    41     1     0     0
SMALL
NO_CHARGES


@<TRIPOS>ATOM
     1 PB         -29.7870   -61.7880    -9.3070 P.3          1 ADP642   0.0000
     2 O1B        -29.6190   -60.8490    -8.1830 O.co2        1 ADP642   0.0000
     3 O2B        -29.4260   -61.2200   -10.6230 O.co2        1 ADP642  -1.0000
     4 O3B        -29.2010   -63.1140    -9.0630 O.co2        1 ADP642  -1.0000
     5 PA         -32.3760   -62.3100   -10.6430 P.3          1 ADP642   0.0000
     6 O1A        -32.6100   -60.9860   -11.2350 O.co2        1 ADP642   0.0000
     7 O2A        -31.8490   -63.3140   -11.5320 O.co2        1 ADP642  -1.0000
     8 O3A        -31.3320   -62.1740    -9.4110 O.3          1 ADP642   0.0000
     9 O5'        -33.7520   -62.8560   -10.0300 O.3          1 ADP642   0.0000
    10 C5'        -34.4470   -64.0860   -10.2670 C.3          1 ADP642   0.0000
    11 C4'        -35.9100   -63.9730   -10.3920 C.3          1 ADP642   0.0000
    12 O4'        -36.2740   -63.5780    -9.0650 O.3          1 ADP642   0.0000
    13 C3'        -36.4340   -62.7510   -11.1670 C.3          1 ADP642   0.0000
    14 O3'        -36.2480   -62.9200   -12.5630 O.3          1 ADP642   0.0000
    15 C2'        -37.8590   -62.6440   -10.5930 C.3          1 ADP642   0.0000
    16 O2'        -38.6040   -63.7210   -10.9860 O.3          1 ADP642   0.0000
    17 C1'        -37.5360   -62.7600    -9.1140 C.3          1 ADP642   0.0000
    18 N9         -36.9010   -61.7370    -8.1520 N.pl3        1 ADP642   0.0000
    19 C8         -35.7640   -61.4890    -7.4480 C.2          1 ADP642   0.0000
    20 N7         -35.8220   -60.3750    -6.7490 N.2          1 ADP642   0.0000
    21 C5         -37.0800   -59.8380    -7.0090 C.ar         1 ADP642   0.0000
    22 C6         -37.7910   -58.6330    -6.5650 C.ar         1 ADP642   0.0000
    23 N6         -37.2780   -57.7340    -5.6930 N.pl3        1 ADP642   0.0000
    24 N1         -39.0720   -58.4240    -7.0620 N.ar         1 ADP642   0.0000
    25 C2         -39.5960   -59.3190    -7.9050 C.ar         1 ADP642   0.0000
    26 N3         -39.0230   -60.4700    -8.3680 N.ar         1 ADP642   0.0000
    27 C4         -37.7480   -60.6680    -7.8840 C.ar         1 ADP642   0.0000
    28 H5'1       -34.2495   -64.7033    -9.5054 H            1 ADP642   0.0000
    29 H5'2       -34.0947   -64.4804   -11.1157 H            1 ADP642   0.0000
    30 H4'        -36.3433   -64.8284   -10.6757 H            1 ADP642   0.0000
    31 H3'        -35.9157   -61.9471   -10.8752 H            1 ADP642   0.0000
    32 H5         -35.3552   -62.5550   -12.8269 H            1 ADP642   0.0000
    33 H2'        -38.2971   -61.7743   -10.8203 H            1 ADP642   0.0000
    34 H7         -39.5270   -63.6433   -10.6091 H            1 ADP642   0.0000
    35 H1'        -38.2722   -63.2493    -8.6464 H            1 ADP642   0.0000
    36 H9         -34.9658   -62.0912    -7.4601 H            1 ADP642   0.0000
    37 H10        -37.8133   -56.9315    -5.4294 H            1 ADP642   0.0000
    38 H11        -36.3637   -57.8722    -5.3124 H            1 ADP642   0.0000
    39 H12        -40.5186   -59.1227    -8.2370 H            1 ADP642   0.0000
@<TRIPOS>BOND
     1    1    2      ar
     2    1    3      ar
     3    1    4      ar
     4    1    8       1
     5    5    6      ar
     6    5    7      ar
     7    5    8       1
     8    5    9       1
     9    9   10       1
    10   10   11       1
    11   11   12       1
    12   11   13       1
    13   12   17       1
    14   13   14       1
    15   13   15       1
    16   15   16       1
    17   15   17       1
    18   17   18       1
    19   18   19       1
    20   18   27       1
    21   19   20       2
    22   20   21       1
    23   21   22      ar
    24   21   27      ar
    25   22   23       1
    26   22   24      ar
    27   24   25      ar
    28   25   26      ar
    29   26   27      ar
    30   25   39       1
    31   23   38       1
    32   23   37       1
    33   10   28       1
    34   10   29       1
    35   11   30       1
    36   13   31       1
    37   14   32       1
    38   15   33       1
    39   16   34       1
    40   17   35       1
    41   19   36       1
@<TRIPOS>SUBSTRUCTURE
     1 ADP642      1 GROUP             4 A     ADP     0 **** ADP A 642
