@<TRIPOS>MOLECULE
2wba_NDP_4_ligand
   42    44     1     0     0
SMALL
NO_CHARGES


@<TRIPOS>ATOM
     1 O5B         22.4070    21.2350    21.7750 O.3          1 NDP1496   0.0000
     2 C5B         23.3540    22.2800    21.7630 C.3          1 NDP1496   0.0000
     3 C4B         24.7640    21.7340    21.5670 C.3          1 NDP1496   0.0000
     4 O4B         25.6400    22.8160    21.3120 O.3          1 NDP1496   0.0000
     5 C3B         25.2870    21.0390    22.8170 C.3          1 NDP1496   0.0000
     6 O3B         26.1100    19.9720    22.4030 O.3          1 NDP1496   0.0000
     7 C2B         26.1190    22.1160    23.4950 C.3          1 NDP1496   0.0000
     8 O2B         27.2310    21.5800    24.1660 O.3          1 NDP1496   0.0000
     9 C1B         26.6140    22.9540    22.3280 C.3          1 NDP1496   0.0000
    10 N9A         26.8150    24.3710    22.6910 N.pl3        1 NDP1496   0.0000
    11 C8A         26.0790    25.1150    23.5800 C.2          1 NDP1496   0.0000
    12 N7A         26.5820    26.3710    23.6130 N.2          1 NDP1496   0.0000
    13 C5A         27.6290    26.4450    22.7590 C.ar         1 NDP1496   0.0000
    14 C6A         28.4870    27.4870    22.4150 C.ar         1 NDP1496   0.0000
    15 N6A         28.1830    28.7380    22.7590 N.pl3        1 NDP1496   0.0000
    16 N1A         29.4920    27.2590    21.4930 N.ar         1 NDP1496   0.0000
    17 C2A         29.6350    26.0080    20.9190 C.ar         1 NDP1496   0.0000
    18 N3A         28.7750    24.9800    21.2620 N.ar         1 NDP1496   0.0000
    19 C4A         27.7870    25.1930    22.1700 C.ar         1 NDP1496   0.0000
    20 P2B         27.1700    21.1300    25.7090 P.3          1 NDP1496   0.0000
    21 O1X         26.7920    19.6700    25.7800 O.co2        1 NDP1496   0.0000
    22 O2X         28.5600    21.3380    26.2630 O.co2        1 NDP1496  -1.0000
    23 O3X         26.1570    21.9510    26.4680 O.co2        1 NDP1496  -1.0000
    24 PA          21.1270    21.2230    22.7550 P.3          1 NDP1496   0.0000
    25 O1A         20.3650    22.4860    22.6300 O.co2        1 NDP1496   0.0000
    26 O2A         20.2650    20.0540    22.4590 O.co2        1 NDP1496  -1.0000
    27 O3          21.7850    21.1180    24.2230 O.3          1 NDP1496   0.0000
    28 PN          21.8960    22.4210    25.1610 P.3          1 NDP1496   0.0000
    29 O1N         23.0510    22.0290    26.2150 O.co2        1 NDP1496   0.0000
    30 O2N         20.6240    22.5610    25.9070 O.co2        1 NDP1496  -1.0000
    31 O5D         22.3950    23.5380    24.3320 O.co2        1 NDP1496  -1.0000
    32 H5B1        23.3110    22.7709    22.6332 H            1 NDP1496   0.0000
    33 H5B2        23.1392    22.9080    21.0150 H            1 NDP1496   0.0000
    34 H4B         24.7770    21.0983    20.7952 H            1 NDP1496   0.0000
    35 H3B         24.5412    20.7241    23.4040 H            1 NDP1496   0.0000
    36 H5          25.7389    19.1107    22.7501 H            1 NDP1496   0.0000
    37 H2B         25.5574    22.6637    24.1152 H            1 NDP1496   0.0000
    38 H1B         27.4803    22.5763    22.0011 H            1 NDP1496   0.0000
    39 H8A         25.3010    24.7840    24.1140 H            1 NDP1496   0.0000
    40 H6A1        28.7975    29.4876    22.5131 H            1 NDP1496   0.0000
    41 H6A2        27.3403    28.9272    23.2631 H            1 NDP1496   0.0000
    42 H2A         30.3634    25.8463    20.2532 H            1 NDP1496   0.0000
@<TRIPOS>BOND
     1    1    2       1
     2    1   24       1
     3    2    3       1
     4    3    4       1
     5    3    5       1
     6    4    9       1
     7    5    6       1
     8    5    7       1
     9    7    8       1
    10    7    9       1
    11    8   20       1
    12    9   10       1
    13   10   11       1
    14   10   19       1
    15   11   12       2
    16   12   13       1
    17   13   14      ar
    18   13   19      ar
    19   14   15       1
    20   14   16      ar
    21   16   17      ar
    22   17   18      ar
    23   18   19      ar
    24   20   21      ar
    25   20   22      ar
    26   20   23      ar
    27   24   25      ar
    28   24   26      ar
    29   24   27       1
    30   27   28       1
    31   28   29      ar
    32   28   30      ar
    33   28   31      ar
    34    2   32       1
    35    2   33       1
    36    3   34       1
    37    5   35       1
    38    6   36       1
    39    7   37       1
    40    9   38       1
    41   11   39       1
    42   15   40       1
    43   15   41       1
    44   17   42       1
@<TRIPOS>SUBSTRUCTURE
     1 NDP1496     1 GROUP             4 B     NDP     0 **** NDP B1496
