@<TRIPOS>MOLECULE
3gr8_FMN_2_ligand
   50    52     1     0     0
SMALL
NO_CHARGES


@<TRIPOS>ATOM
     1 N1         -15.3250   -25.1020   -26.0400 N.2          1 FMN341   0.0000
     2 C2         -15.1380   -24.3300   -24.9130 C.2          1 FMN341   0.0000
     3 O2         -14.9300   -23.1250   -25.0200 O.2          1 FMN341   0.0000
     4 N3         -15.1700   -24.9050   -23.6610 N.pl3        1 FMN341   0.0000
     5 C4         -15.3950   -26.2560   -23.5230 C.2          1 FMN341   0.0000
     6 O4         -15.4160   -26.7550   -22.4010 O.2          1 FMN341   0.0000
     7 C4A        -15.5860   -27.0410   -24.6550 C.2          1 FMN341   0.0000
     8 N5         -15.8110   -28.3940   -24.5280 N.2          1 FMN341   0.0000
     9 C5A        -15.6600   -29.1810   -25.6480 C.ar         1 FMN341   0.0000
    10 C6         -15.5520   -30.5580   -25.5070 C.ar         1 FMN341   0.0000
    11 C7         -15.3980   -31.3630   -26.6290 C.ar         1 FMN341   0.0000
    12 C7M        -15.2880   -32.8510   -26.4830 C.3          1 FMN341   0.0000
    13 C8         -15.3510   -30.7880   -27.8920 C.ar         1 FMN341   0.0000
    14 C8M        -15.1870   -31.6500   -29.1080 C.3          1 FMN341   0.0000
    15 C9         -15.4650   -29.4100   -28.0310 C.ar         1 FMN341   0.0000
    16 C9A        -15.6110   -28.6000   -26.9100 C.ar         1 FMN341   0.0000
    17 N10        -15.7050   -27.2270   -27.0530 N.pl3        1 FMN341   0.0000
    18 C10        -15.5500   -26.4580   -25.9180 C.2          1 FMN341   0.0000
    19 C1'        -15.3830   -26.6020   -28.3790 C.3          1 FMN341   0.0000
    20 C2'        -13.8930   -26.7610   -28.6730 C.3          1 FMN341   0.0000
    21 O2'        -13.1460   -26.0610   -27.7020 O.3          1 FMN341   0.0000
    22 C3'        -13.5340   -26.2450   -30.0630 C.3          1 FMN341   0.0000
    23 O3'        -13.5610   -24.8390   -30.0760 O.3          1 FMN341   0.0000
    24 C4'        -14.4910   -26.7730   -31.1240 C.3          1 FMN341   0.0000
    25 O4'        -14.6630   -28.1630   -30.9510 O.3          1 FMN341   0.0000
    26 C5'        -13.9490   -26.4980   -32.5200 C.3          1 FMN341   0.0000
    27 O5'        -12.5490   -26.6750   -32.5190 O.3          1 FMN341   0.0000
    28 P          -11.8920   -27.8690   -33.3760 P.3          1 FMN341   0.0000
    29 O1P        -12.5150   -27.8890   -34.7500 O.co2        1 FMN341   0.0000
    30 O2P        -10.4000   -27.6710   -33.4810 O.co2        1 FMN341  -1.0000
    31 O3P        -12.1900   -29.1730   -32.6870 O.co2        1 FMN341  -1.0000
    32 H1         -15.0292   -24.3383   -22.8492 H            1 FMN341   0.0000
    33 H2         -15.5851   -30.9709   -24.5968 H            1 FMN341   0.0000
    34 H7M1       -15.1829   -33.2677   -27.3860 H            1 FMN341   0.0000
    35 H7M2       -14.4925   -33.0727   -25.9190 H            1 FMN341   0.0000
    36 H7M3       -16.1151   -33.2052   -26.0467 H            1 FMN341   0.0000
    37 H8M1       -15.1737   -31.0742   -29.9255 H            1 FMN341   0.0000
    38 H8M2       -14.3276   -32.1573   -29.0436 H            1 FMN341   0.0000
    39 H8M3       -15.9503   -32.2934   -29.1659 H            1 FMN341   0.0000
    40 H9         -15.4419   -28.9986   -28.9421 H            1 FMN341   0.0000
    41 H1'1       -15.6151   -25.6296   -28.3536 H            1 FMN341   0.0000
    42 H1'2       -15.9136   -27.0527   -29.0968 H            1 FMN341   0.0000
    43 H2'        -13.6576   -27.7315   -28.6205 H            1 FMN341   0.0000
    44 H13        -13.3486   -26.4307   -26.7952 H            1 FMN341   0.0000
    45 H3'        -12.6082   -26.5491   -30.2877 H            1 FMN341   0.0000
    46 H15        -14.2349   -24.5247   -30.7447 H            1 FMN341   0.0000
    47 H4'        -15.3759   -26.3187   -31.0214 H            1 FMN341   0.0000
    48 H17        -13.8306   -28.5558   -30.5600 H            1 FMN341   0.0000
    49 H5'1       -14.1669   -25.5584   -32.7840 H            1 FMN341   0.0000
    50 H5'2       -14.3656   -27.1323   -33.1712 H            1 FMN341   0.0000
@<TRIPOS>BOND
     1    1    2       1
     2    1   18       2
     3    2    3       2
     4    2    4       1
     5    4    5       1
     6    5    6       2
     7    5    7       1
     8    7    8       2
     9    7   18       1
    10    8    9       1
    11    9   10      ar
    12    9   16      ar
    13   10   11      ar
    14   11   12       1
    15   11   13      ar
    16   13   14       1
    17   13   15      ar
    18   15   16      ar
    19   16   17       1
    20   17   18       1
    21   17   19       1
    22   19   20       1
    23   20   21       1
    24   20   22       1
    25   22   23       1
    26   22   24       1
    27   24   25       1
    28   24   26       1
    29   26   27       1
    30   27   28       1
    31   28   29      ar
    32   28   30      ar
    33   28   31      ar
    34    4   32       1
    35   10   33       1
    36   12   34       1
    37   12   35       1
    38   12   36       1
    39   14   37       1
    40   14   38       1
    41   14   39       1
    42   15   40       1
    43   19   41       1
    44   19   42       1
    45   20   43       1
    46   21   44       1
    47   22   45       1
    48   23   46       1
    49   24   47       1
    50   25   48       1
    51   26   49       1
    52   26   50       1
@<TRIPOS>SUBSTRUCTURE
     1 FMN341      1 GROUP             4 B     FMN     0 **** FMN B 341
