@<TRIPOS>MOLECULE
2psu_MUU_1_ligand
   71    73     1     0     0
SMALL
NO_CHARGES


@<TRIPOS>ATOM
     1 O10         17.2920    31.4310    14.3860 O.2          1 MUU200   0.0000
     2 S8          18.0940    32.4720    14.9510 S.o2         1 MUU200   0.0000
     3 O9          18.6180    33.3620    13.9520 O.2          1 MUU200   0.0000
     4 C5          17.1650    33.3670    15.9940 C.ar         1 MUU200   0.0000
     5 C6          17.4560    34.7120    16.2010 C.ar         1 MUU200   0.0000
     6 C7          16.6970    35.4830    17.0750 C.ar         1 MUU200   0.0000
     7 O19         17.0410    36.8120    17.2240 O.3          1 MUU200   0.0000
     8 C18         16.5380    37.6470    18.2600 C.3          1 MUU200   0.0000
     9 C2          15.6190    34.8970    17.7490 C.ar         1 MUU200   0.0000
    10 C3          15.3250    33.5550    17.5580 C.ar         1 MUU200   0.0000
    11 C4          16.0940    32.7910    16.6790 C.ar         1 MUU200   0.0000
    12 N11         19.3830    31.7780    15.6630 N.3          1 MUU200   0.0000
    13 C12         20.2230    32.7280    16.4250 C.3          1 MUU200   0.0000
    14 C13         21.6600    32.1990    16.4240 C.3          1 MUU200   0.0000
    15 C15         22.7920    33.2120    16.2430 C.3          1 MUU200   0.0000
    16 C14         22.4180    32.2840    15.0960 C.3          1 MUU200   0.0000
    17 C16         19.0940    30.5310    16.4100 C.3          1 MUU200   0.0000
    18 C17         19.9810    29.4260    15.7850 C.3          1 MUU200   0.0000
    19 O18         19.9780    28.2750    16.6280 O.3          1 MUU200   0.0000
    20 C19         19.5790    29.0160    14.3550 C.3          1 MUU200   0.0000
    21 C32         18.2550    28.2500    14.3090 C.3          1 MUU200   0.0000
    22 C38         17.9680    27.8560    12.8810 C.ar         1 MUU200   0.0000
    23 C33         18.1700    26.5430    12.4570 C.ar         1 MUU200   0.0000
    24 C34         17.9270    26.1740    11.1450 C.ar         1 MUU200   0.0000
    25 C35         17.4740    27.1230    10.2400 C.ar         1 MUU200   0.0000
    26 C36         17.2930    28.4230    10.6550 C.ar         1 MUU200   0.0000
    27 C37         17.5190    28.7950    11.9680 C.ar         1 MUU200   0.0000
    28 N20         20.6400    28.1910    13.7550 N.am         1 MUU200   0.0000
    29 C21         21.4040    28.5930    12.7310 C.2          1 MUU200   0.0000
    30 O22         21.3000    29.6940    12.2220 O.2          1 MUU200   0.0000
    31 C23         22.4730    27.6930    12.1880 C.3          1 MUU200   0.0000
    32 C24         21.8470    26.6510    11.2930 C.3          1 MUU200   0.0000
    33 C25         22.9450    25.7490    10.7890 C.2          1 MUU200   0.0000
    34 O26         23.6570    25.1260    11.5870 O.2          1 MUU200   0.0000
    35 N27         23.1030    25.6580     9.4670 N.am         1 MUU200   0.0000
    36 C28         24.1110    24.8000     8.8660 C.3          1 MUU200   0.0000
    37 H1          18.2225    35.1306    15.7139 H            1 MUU200   0.0000
    38 H2          16.9253    38.5642    18.1665 H            1 MUU200   0.0000
    39 H3          15.5415    37.6975    18.1932 H            1 MUU200   0.0000
    40 H4          16.7936    37.2663    19.1487 H            1 MUU200   0.0000
    41 H5          15.0598    35.4470    18.3694 H            1 MUU200   0.0000
    42 H6          14.5623    33.1351    18.0499 H            1 MUU200   0.0000
    43 H7          15.8764    31.8250    16.5391 H            1 MUU200   0.0000
    44 H8          19.8883    32.7981    17.3647 H            1 MUU200   0.0000
    45 H9          20.1932    33.6291    15.9925 H            1 MUU200   0.0000
    46 H10         21.8506    31.4067    17.0036 H            1 MUU200   0.0000
    47 H11         23.6581    33.0847    16.7263 H            1 MUU200   0.0000
    48 H12         22.5838    34.1883    16.1837 H            1 MUU200   0.0000
    49 H13         21.9639    32.6510    14.2841 H            1 MUU200   0.0000
    50 H14         23.0383    31.5473    14.8267 H            1 MUU200   0.0000
    51 H15         18.1276    30.2904    16.3192 H            1 MUU200   0.0000
    52 H16         19.3189    30.6481    17.3773 H            1 MUU200   0.0000
    53 H17         20.9181    29.7733    15.7490 H            1 MUU200   0.0000
    54 H18         19.1062    28.2207    17.1149 H            1 MUU200   0.0000
    55 H19         19.4799    29.8465    13.8069 H            1 MUU200   0.0000
    56 H20         17.5179    28.8328    14.6511 H            1 MUU200   0.0000
    57 H21         18.3219    27.4295    14.8767 H            1 MUU200   0.0000
    58 H22         18.4949    25.8585    13.1097 H            1 MUU200   0.0000
    59 H23         18.0770    25.2298    10.8516 H            1 MUU200   0.0000
    60 H24         17.2805    26.8647     9.2935 H            1 MUU200   0.0000
    61 H25         16.9925    29.1114     9.9948 H            1 MUU200   0.0000
    62 H26         17.3586    29.7389    12.2568 H            1 MUU200   0.0000
    63 H27         20.7994    27.2791    14.1332 H            1 MUU200   0.0000
    64 H28         22.9452    27.2418    12.9452 H            1 MUU200   0.0000
    65 H29         23.1286    28.2342    11.6615 H            1 MUU200   0.0000
    66 H30         21.3920    27.0955    10.5214 H            1 MUU200   0.0000
    67 H31         21.1792    26.1161    11.8106 H            1 MUU200   0.0000
    68 H32         22.5088    26.1975     8.8705 H            1 MUU200   0.0000
    69 H33         24.0634    24.8768     7.8701 H            1 MUU200   0.0000
    70 H34         25.0180    25.0816     9.1790 H            1 MUU200   0.0000
    71 H35         23.9450    23.8514     9.1355 H            1 MUU200   0.0000
@<TRIPOS>BOND
     1    1    2       2
     2    2    3       2
     3    2    4       1
     4    2   12       1
     5    4    5      ar
     6    4   11      ar
     7    5    6      ar
     8    6    7       1
     9    6    9      ar
    10    7    8       1
    11    9   10      ar
    12   10   11      ar
    13   12   13       1
    14   12   17       1
    15   13   14       1
    16   14   15       1
    17   14   16       1
    18   15   16       1
    19   17   18       1
    20   18   19       1
    21   18   20       1
    22   20   21       1
    23   20   28       1
    24   21   22       1
    25   22   23      ar
    26   22   27      ar
    27   23   24      ar
    28   24   25      ar
    29   25   26      ar
    30   26   27      ar
    31   28   29      am
    32   29   30       2
    33   29   31       1
    34   31   32       1
    35   32   33       1
    36   33   34       2
    37   33   35      am
    38   35   36       1
    39    5   37       1
    40    8   38       1
    41    8   39       1
    42    8   40       1
    43    9   41       1
    44   10   42       1
    45   11   43       1
    46   13   44       1
    47   13   45       1
    48   14   46       1
    49   15   47       1
    50   15   48       1
    51   16   49       1
    52   16   50       1
    53   17   51       1
    54   17   52       1
    55   18   53       1
    56   19   54       1
    57   20   55       1
    58   21   56       1
    59   21   57       1
    60   23   58       1
    61   24   59       1
    62   25   60       1
    63   26   61       1
    64   27   62       1
    65   28   63       1
    66   31   64       1
    67   31   65       1
    68   32   66       1
    69   32   67       1
    70   35   68       1
    71   36   69       1
    72   36   70       1
    73   36   71       1
@<TRIPOS>SUBSTRUCTURE
     1 MUU200      1 GROUP             4 A     MUU     0 **** MUU A 200
