@<TRIPOS>MOLECULE
4fw8_NAI_2_ligand
   71    75     1     0     0
SMALL
NO_CHARGES


@<TRIPOS>ATOM
     1 PA          28.0060    28.5030     0.4120 P.3          1 NAI501   0.0000
     2 O1A         29.5540    28.1990     0.8610 O.co2        1 NAI501   0.0000
     3 O2A         27.1620    29.1960     1.4510 O.co2        1 NAI501  -1.0000
     4 O5B         28.1610    29.3870    -0.8760 O.3          1 NAI501   0.0000
     5 C5B         28.3910    30.7310    -0.5270 C.3          1 NAI501   0.0000
     6 C4B         27.8620    31.6890    -1.5730 C.3          1 NAI501   0.0000
     7 O4B         26.4210    31.9230    -1.4590 O.3          1 NAI501   0.0000
     8 C3B         28.5570    33.0020    -1.2200 C.3          1 NAI501   0.0000
     9 O3B         29.1290    33.5520    -2.4270 O.3          1 NAI501   0.0000
    10 C2B         27.4220    33.8440    -0.6570 C.3          1 NAI501   0.0000
    11 O2B         27.7000    35.2460    -0.8180 O.3          1 NAI501   0.0000
    12 C1B         26.3200    33.3730    -1.5950 C.3          1 NAI501   0.0000
    13 N9A         25.0010    33.9950    -1.2790 N.pl3        1 NAI501   0.0000
    14 C8A         24.1960    33.7700    -0.2390 C.2          1 NAI501   0.0000
    15 N7A         23.1310    34.5580    -0.3880 N.2          1 NAI501   0.0000
    16 C5A         23.2750    35.2740    -1.5170 C.ar         1 NAI501   0.0000
    17 C6A         22.4970    36.1990    -2.1220 C.ar         1 NAI501   0.0000
    18 N6A         21.3480    36.5130    -1.5170 N.pl3        1 NAI501   0.0000
    19 N1A         22.8500    36.7830    -3.2870 N.ar         1 NAI501   0.0000
    20 C2A         24.0620    36.4270    -3.8930 C.ar         1 NAI501   0.0000
    21 N3A         24.8490    35.4710    -3.2350 N.ar         1 NAI501   0.0000
    22 C4A         24.4410    34.9170    -2.0710 C.ar         1 NAI501   0.0000
    23 O3          27.3730    27.0560    -0.0460 O.3          1 NAI501   0.0000
    24 PN          28.2610    25.8660    -0.7110 P.3          1 NAI501   0.0000
    25 O1N         29.6930    26.4680    -1.2710 O.co2        1 NAI501   0.0000
    26 O2N         28.4660    24.7010     0.1900 O.co2        1 NAI501  -1.0000
    27 O5D         27.4060    25.4560    -2.0200 O.3          1 NAI501   0.0000
    28 C5D         26.5060    26.3430    -2.7040 C.3          1 NAI501   0.0000
    29 C4D         25.2290    25.5890    -3.1240 C.3          1 NAI501   0.0000
    30 O4D         25.3760    24.1310    -3.0110 O.3          1 NAI501   0.0000
    31 C3D         24.0920    25.9860    -2.1950 C.3          1 NAI501   0.0000
    32 O3D         22.9410    26.2980    -2.9650 O.3          1 NAI501   0.0000
    33 C2D         23.8250    24.7450    -1.3930 C.3          1 NAI501   0.0000
    34 O2D         22.4340    24.6620    -1.1180 O.3          1 NAI501   0.0000
    35 C1D         24.2360    23.6110    -2.3110 C.3          1 NAI501   0.0000
    36 N1N         24.5400    22.4120    -1.4950 N.pl3        1 NAI501   0.0000
    37 C2N         25.8080    22.2490    -1.0350 C.2          1 NAI501   0.0000
    38 C3N         26.1440    21.0490    -0.3710 C.2          1 NAI501   0.0000
    39 C7N         27.4410    20.8720     0.1610 C.2          1 NAI501   0.0000
    40 O7N         27.7250    19.8073     0.7232 O.2          1 NAI501   0.0000
    41 N7N         28.3164    21.9001     0.0216 N.am         1 NAI501   0.0000
    42 C4N         25.1560    20.0380    -0.2580 C.3          1 NAI501   0.0000
    43 C5N         24.3330    20.0610    -1.3900 C.2          1 NAI501   0.0000
    44 C6N         24.0600    21.2770    -2.0290 C.2          1 NAI501   0.0000
    45 H5B1        29.3756    30.8743    -0.4269 H            1 NAI501   0.0000
    46 H5B2        27.9364    30.9206     0.3433 H            1 NAI501   0.0000
    47 H4B         28.1067    31.3878    -2.4946 H            1 NAI501   0.0000
    48 H3B         29.2642    32.8535    -0.5288 H            1 NAI501   0.0000
    49 H5          28.7315    34.4523    -2.6041 H            1 NAI501   0.0000
    50 H2B         27.2239    33.6115     0.2952 H            1 NAI501   0.0000
    51 H7          27.3383    35.5588    -1.6963 H            1 NAI501   0.0000
    52 H1B         26.5719    33.6219    -2.5302 H            1 NAI501   0.0000
    53 H8A         24.3607    33.1301     0.5116 H            1 NAI501   0.0000
    54 H6A1        20.7374    37.1919    -1.9248 H            1 NAI501   0.0000
    55 H6A2        21.0985    36.0691    -0.6563 H            1 NAI501   0.0000
    56 H2A         24.3532    36.8369    -4.7574 H            1 NAI501   0.0000
    57 H5D1        26.9572    26.7071    -3.5187 H            1 NAI501   0.0000
    58 H5D2        26.2590    27.0966    -2.0949 H            1 NAI501   0.0000
    59 H4D         24.9921    25.8298    -4.0652 H            1 NAI501   0.0000
    60 H3D         24.3537    26.7505    -1.6059 H            1 NAI501   0.0000
    61 H17         23.1485    27.0570    -3.5821 H            1 NAI501   0.0000
    62 H2D         24.3610    24.7384    -0.5488 H            1 NAI501   0.0000
    63 H19         22.1483    25.4672    -0.5983 H            1 NAI501   0.0000
    64 H1D         23.4999    23.4087    -2.9569 H            1 NAI501   0.0000
    65 H2N         26.4919    22.9669    -1.1645 H            1 NAI501   0.0000
    66 H7N1        29.2452    21.8184     0.3831 H            1 NAI501   0.0000
    67 H7N2        28.0325    22.7391    -0.4425 H            1 NAI501   0.0000
    68 H4N1        24.6034    20.2018     0.5592 H            1 NAI501   0.0000
    69 H4N2        25.5998    19.1447    -0.1867 H            1 NAI501   0.0000
    70 H5N         23.9408    19.2110    -1.7417 H            1 NAI501   0.0000
    71 H6N         23.5170    21.2998    -2.8684 H            1 NAI501   0.0000
@<TRIPOS>BOND
     1    1    2      ar
     2    1    3      ar
     3    1    4       1
     4    1   23       1
     5    4    5       1
     6    5    6       1
     7    6    7       1
     8    6    8       1
     9    7   12       1
    10    8    9       1
    11    8   10       1
    12   10   11       1
    13   10   12       1
    14   12   13       1
    15   13   14       1
    16   13   22       1
    17   14   15       2
    18   15   16       1
    19   16   17      ar
    20   16   22      ar
    21   17   18       1
    22   17   19      ar
    23   19   20      ar
    24   20   21      ar
    25   21   22      ar
    26   23   24       1
    27   24   25      ar
    28   24   26      ar
    29   24   27       1
    30   27   28       1
    31   28   29       1
    32   29   30       1
    33   29   31       1
    34   30   35       1
    35   31   32       1
    36   31   33       1
    37   33   34       1
    38   33   35       1
    39   35   36       1
    40   36   37       1
    41   36   44       1
    42   37   38       2
    43   38   39       1
    44   38   42       1
    45   39   40       2
    46   39   41      am
    47   42   43       1
    48   43   44       2
    49   44   71       1
    50    5   45       1
    51    5   46       1
    52    6   47       1
    53    8   48       1
    54    9   49       1
    55   10   50       1
    56   11   51       1
    57   12   52       1
    58   14   53       1
    59   18   54       1
    60   18   55       1
    61   20   56       1
    62   43   70       1
    63   28   57       1
    64   28   58       1
    65   29   59       1
    66   31   60       1
    67   32   61       1
    68   33   62       1
    69   34   63       1
    70   35   64       1
    71   37   65       1
    72   41   66       1
    73   41   67       1
    74   42   68       1
    75   42   69       1
@<TRIPOS>SUBSTRUCTURE
     1 NAI501      1 GROUP             4 B     NAI     0 **** NAI B 501
