@<TRIPOS>MOLECULE
2x72_RET_1_ligand
   49    49     1     0     0
SMALL
NO_CHARGES


@<TRIPOS>ATOM
     1 C1          39.0030   -30.9720    33.3780 C.3          1 RET1338   0.0000
     2 C2          39.6870   -29.6020    33.3210 C.3          1 RET1338   0.0000
     3 C3          39.0370   -28.5980    34.2620 C.3          1 RET1338   0.0000
     4 C4          37.6040   -28.3960    33.8290 C.3          1 RET1338   0.0000
     5 C5          36.9150   -29.6990    33.9060 C.2          1 RET1338   0.0000
     6 C6          37.5670   -30.8770    33.7650 C.2          1 RET1338   0.0000
     7 C7          37.0450   -32.2290    33.9550 C.2          1 RET1338   0.0000
     8 C8          35.9580   -32.5490    34.6790 C.2          1 RET1338   0.0000
     9 C9          35.4650   -33.8910    34.7750 C.2          1 RET1338   0.0000
    10 C10         34.2870   -34.1360    35.3790 C.2          1 RET1338   0.0000
    11 C11         33.6750   -35.4200    35.3170 C.2          1 RET1338   0.0000
    12 C12         32.5580   -35.7340    36.0000 C.2          1 RET1338   0.0000
    13 C13         31.9430   -37.0190    35.8140 C.2          1 RET1338   0.0000
    14 C14         31.1150   -37.5730    36.7270 C.2          1 RET1338   0.0000
    15 C15         30.5510   -38.8940    36.5690 C.2          1 RET1338   0.0000
    16 O1          29.9100   -39.4310    37.4730 O.2          1 RET1338   0.0000
    17 C16         39.6240   -31.9370    34.3890 C.3          1 RET1338   0.0000
    18 C17         39.1530   -31.6300    32.0020 C.3          1 RET1338   0.0000
    19 C18         35.4500   -29.5150    34.1290 C.3          1 RET1338   0.0000
    20 C19         36.2470   -34.9870    34.1260 C.3          1 RET1338   0.0000
    21 C20         32.3030   -37.7200    34.5510 C.3          1 RET1338   0.0000
    22 H1          39.6297   -29.2516    32.3861 H            1 RET1338   0.0000
    23 H2          40.6473   -29.7101    33.5782 H            1 RET1338   0.0000
    24 H3          39.5284   -27.7281    34.2193 H            1 RET1338   0.0000
    25 H4          39.0606   -28.9485    35.1983 H            1 RET1338   0.0000
    26 H5          37.5785   -28.0539    32.8897 H            1 RET1338   0.0000
    27 H6          37.1559   -27.7390    34.4353 H            1 RET1338   0.0000
    28 H7          37.5367   -32.9775    33.5100 H            1 RET1338   0.0000
    29 H8          35.4754   -31.8230    35.1689 H            1 RET1338   0.0000
    30 H9          33.8324   -33.4008    35.8817 H            1 RET1338   0.0000
    31 H10         34.0940   -36.1208    34.7397 H            1 RET1338   0.0000
    32 H11         32.1572   -35.0741    36.6355 H            1 RET1338   0.0000
    33 H12         30.8831   -37.0473    37.5454 H            1 RET1338   0.0000
    34 H13         30.6841   -39.3827    35.7068 H            1 RET1338   0.0000
    35 H14         39.1277   -32.8049    34.3697 H            1 RET1338   0.0000
    36 H15         40.5826   -32.0959    34.1528 H            1 RET1338   0.0000
    37 H16         39.5677   -31.5412    35.3056 H            1 RET1338   0.0000
    38 H17         38.7137   -32.5283    32.0124 H            1 RET1338   0.0000
    39 H18         38.7193   -31.0548    31.3084 H            1 RET1338   0.0000
    40 H19         40.1239   -31.7362    31.7874 H            1 RET1338   0.0000
    41 H20         35.0053   -30.4094    34.1776 H            1 RET1338   0.0000
    42 H21         35.3027   -29.0224    34.9867 H            1 RET1338   0.0000
    43 H22         35.0609   -28.9900    33.3720 H            1 RET1338   0.0000
    44 H23         35.7840   -35.8606    34.2757 H            1 RET1338   0.0000
    45 H24         36.3165   -34.8106    33.1441 H            1 RET1338   0.0000
    46 H25         37.1637   -35.0231    34.5239 H            1 RET1338   0.0000
    47 H26         31.8294   -38.5998    34.5114 H            1 RET1338   0.0000
    48 H27         32.0304   -37.1592    33.7692 H            1 RET1338   0.0000
    49 H28         33.2910   -37.8718    34.5240 H            1 RET1338   0.0000
@<TRIPOS>BOND
     1    1    2       1
     2    1    6       1
     3    1   17       1
     4    1   18       1
     5    2    3       1
     6    3    4       1
     7    4    5       1
     8    5    6       2
     9    5   19       1
    10    6    7       1
    11    7    8       2
    12    8    9       1
    13    9   10       2
    14    9   20       1
    15   10   11       1
    16   11   12       2
    17   12   13       1
    18   13   14       2
    19   13   21       1
    20   14   15       1
    21   15   16       2
    22    2   22       1
    23    2   23       1
    24    3   24       1
    25    3   25       1
    26    4   26       1
    27    4   27       1
    28    7   28       1
    29    8   29       1
    30   10   30       1
    31   11   31       1
    32   12   32       1
    33   14   33       1
    34   15   34       1
    35   17   35       1
    36   17   36       1
    37   17   37       1
    38   18   38       1
    39   18   39       1
    40   18   40       1
    41   19   41       1
    42   19   42       1
    43   19   43       1
    44   20   44       1
    45   20   45       1
    46   20   46       1
    47   21   47       1
    48   21   48       1
    49   21   49       1
@<TRIPOS>SUBSTRUCTURE
     1 RET1338     1 GROUP             4 A     RET     0 **** RET A1338
