@<TRIPOS>MOLECULE
1w5s_ADP_1_ligand
   39    41     1     0     0
SMALL
NO_CHARGES


@<TRIPOS>ATOM
     1 PB          16.1450    74.9580    46.7030 P.3          1 ADP700   0.0000
     2 O1B         17.4050    75.1170    47.5130 O.co2        1 ADP700   0.0000
     3 O2B         16.3920    74.9720    45.1980 O.co2        1 ADP700  -1.0000
     4 O3B         15.3600    73.6980    47.1340 O.co2        1 ADP700  -1.0000
     5 PA          13.9680    76.2620    48.1590 P.3          1 ADP700   0.0000
     6 O1A         14.5300    75.7060    49.4240 O.co2        1 ADP700   0.0000
     7 O2A         12.7280    75.7030    47.4990 O.co2        1 ADP700  -1.0000
     8 O3A         15.2340    76.2390    47.0550 O.3          1 ADP700   0.0000
     9 O5'         13.7700    77.8660    48.3300 O.3          1 ADP700   0.0000
    10 C5'         14.6630    78.7300    49.0690 C.3          1 ADP700   0.0000
    11 C4'         13.8640    79.7920    49.7620 C.3          1 ADP700   0.0000
    12 O4'         13.2330    80.6360    48.7800 O.3          1 ADP700   0.0000
    13 C3'         12.7200    79.2450    50.6010 C.3          1 ADP700   0.0000
    14 O3'         12.4070    80.1380    51.6490 O.3          1 ADP700   0.0000
    15 C2'         11.5070    79.2250    49.6490 C.3          1 ADP700   0.0000
    16 O2'         10.2430    79.3820    50.3410 O.3          1 ADP700   0.0000
    17 C1'         11.7980    80.4820    48.8080 C.3          1 ADP700   0.0000
    18 N9          11.1820    80.3290    47.4750 N.pl3        1 ADP700   0.0000
    19 C8          11.7700    79.6870    46.4470 C.2          1 ADP700   0.0000
    20 N7          11.0100    79.7060    45.3670 N.2          1 ADP700   0.0000
    21 C5           9.9170    80.3850    45.6700 C.ar         1 ADP700   0.0000
    22 C6           8.7120    80.7260    44.9240 C.ar         1 ADP700   0.0000
    23 N6           8.6190    80.3090    43.6320 N.pl3        1 ADP700   0.0000
    24 N1           7.7590    81.4650    45.5490 N.ar         1 ADP700   0.0000
    25 C2           7.9270    81.8210    46.8660 C.ar         1 ADP700   0.0000
    26 N3           9.0290    81.4930    47.5910 N.ar         1 ADP700   0.0000
    27 C4          10.0260    80.8050    47.0660 C.ar         1 ADP700   0.0000
    28 H5'1        15.3115    79.1575    48.4391 H            1 ADP700   0.0000
    29 H5'2        15.1629    78.1918    49.7476 H            1 ADP700   0.0000
    30 H4'         14.4680    80.3427    50.3381 H            1 ADP700   0.0000
    31 H3'         12.9266    78.3306    50.9492 H            1 ADP700   0.0000
    32 H5          11.4351    80.0626    51.8721 H            1 ADP700   0.0000
    33 H2'         11.5077    78.4022    49.0806 H            1 ADP700   0.0000
    34 H7           9.6699    78.5796    50.1744 H            1 ADP700   0.0000
    35 H1'         11.3952    81.2766    49.2622 H            1 ADP700   0.0000
    36 H9          12.6686    79.2510    46.4955 H            1 ADP700   0.0000
    37 H10          7.8050    80.5270    43.0936 H            1 ADP700   0.0000
    38 H11          9.3647    79.7846    43.2210 H            1 ADP700   0.0000
    39 H12          7.2032    82.3470    47.3125 H            1 ADP700   0.0000
@<TRIPOS>BOND
     1    1    2      ar
     2    1    3      ar
     3    1    4      ar
     4    1    8       1
     5    5    6      ar
     6    5    7      ar
     7    5    8       1
     8    5    9       1
     9    9   10       1
    10   10   11       1
    11   11   12       1
    12   11   13       1
    13   12   17       1
    14   13   14       1
    15   13   15       1
    16   15   16       1
    17   15   17       1
    18   17   18       1
    19   18   19       1
    20   18   27       1
    21   19   20       2
    22   20   21       1
    23   21   22      ar
    24   21   27      ar
    25   22   23       1
    26   22   24      ar
    27   24   25      ar
    28   25   26      ar
    29   26   27      ar
    30   25   39       1
    31   23   38       1
    32   23   37       1
    33   10   28       1
    34   10   29       1
    35   11   30       1
    36   13   31       1
    37   14   32       1
    38   15   33       1
    39   16   34       1
    40   17   35       1
    41   19   36       1
@<TRIPOS>SUBSTRUCTURE
     1 ADP700      1 GROUP             4 A     ADP     0 **** ADP A 700
