@<TRIPOS>MOLECULE
3ocs_746_1_ligand
   80    84     1     0     0
SMALL
NO_CHARGES


@<TRIPOS>ATOM
     1 C1         -43.4850    19.2770     8.9010 C.ar         1 746999   0.0000
     2 C2         -43.5110    19.8210     7.5870 C.ar         1 746999   0.0000
     3 C3         -42.8960    19.0380     6.4330 C.3          1 746999   0.0000
     4 C4         -44.0810    21.0980     7.3600 C.ar         1 746999   0.0000
     5 C5         -44.6190    21.8310     8.3990 C.ar         1 746999   0.0000
     6 C7         -44.6160    21.2870     9.6830 C.ar         1 746999   0.0000
     7 C9         -44.0610    20.0290     9.9420 C.ar         1 746999   0.0000
     8 C11        -42.9260    17.9460     9.2810 C.2          1 746999   0.0000
     9 N12        -42.3180    17.7850    10.5020 N.2          1 746999   0.0000
    10 C13        -41.8140    16.5890    10.8750 C.2          1 746999   0.0000
    11 C14        -41.9410    15.4880    10.0310 C.2          1 746999   0.0000
    12 O15        -41.4760    14.3530    10.3900 O.2          1 746999   0.0000
    13 N16        -42.5430    15.6340     8.8460 N.pl3        1 746999   0.0000
    14 C17        -43.0560    16.8260     8.4530 C.2          1 746999   0.0000
    15 N19        -44.0360    21.5980     6.0870 N.am         1 746999   0.0000
    16 C21        -44.8470    21.1770     5.1150 C.2          1 746999   0.0000
    17 O22        -45.7550    20.3660     5.2980 O.2          1 746999   0.0000
    18 C23        -44.5750    21.6650     3.7080 C.ar         1 746999   0.0000
    19 C24        -45.5540    21.6330     2.7010 C.ar         1 746999   0.0000
    20 C26        -45.2420    22.0560     1.4020 C.ar         1 746999   0.0000
    21 C28        -43.9290    22.4650     1.0910 C.ar         1 746999   0.0000
    22 C29        -42.9390    22.4550     2.1060 C.ar         1 746999   0.0000
    23 C31        -43.2550    22.0560     3.4110 C.ar         1 746999   0.0000
    24 C33        -43.5940    22.9400    -0.3100 C.3          1 746999   0.0000
    25 C34        -43.3710    24.4520    -0.2580 C.3          1 746999   0.0000
    26 C38        -44.7350    22.6520    -1.2770 C.3          1 746999   0.0000
    27 C42        -42.3130    22.2910    -0.8480 C.3          1 746999   0.0000
    28 C46        -40.9550    17.2220    13.1040 C.ar         1 746999   0.0000
    29 N47        -41.2010    16.3770    12.0640 N.pl3        1 746999   0.0000
    30 C48        -41.2650    18.5810    13.1100 C.ar         1 746999   0.0000
    31 C49        -40.9350    19.3540    14.2240 C.ar         1 746999   0.0000
    32 C50        -40.3160    18.7610    15.3350 C.ar         1 746999   0.0000
    33 C51        -40.0420    17.3980    15.3360 C.ar         1 746999   0.0000
    34 C52        -40.3580    16.6430    14.2220 C.ar         1 746999   0.0000
    35 C60        -42.6850    14.4990     7.9120 C.3          1 746999   0.0000
    36 C71        -39.9420    19.5750    16.5520 C.2          1 746999   0.0000
    37 O72        -40.7860    20.3290    17.0010 O.2          1 746999   0.0000
    38 C81        -37.7260    19.3120    19.2880 C.3          1 746999   0.0000
    39 C82        -38.3390    20.2710    18.2700 C.3          1 746999   0.0000
    40 N83        -38.7090    19.4680    17.0930 N.am         1 746999   0.0000
    41 C84        -37.6350    18.6040    16.5350 C.3          1 746999   0.0000
    42 C85        -36.9880    17.7860    17.6500 C.3          1 746999   0.0000
    43 O86        -36.5880    18.6800    18.6860 O.3          1 746999   0.0000
    44 H1         -42.9984    19.5583     5.5852 H            1 746999   0.0000
    45 H2         -41.9247    18.8844     6.6146 H            1 746999   0.0000
    46 H3         -43.3614    18.1576     6.3421 H            1 746999   0.0000
    47 H4         -45.0051    22.7385     8.2332 H            1 746999   0.0000
    48 H5         -45.0195    21.8076    10.4354 H            1 746999   0.0000
    49 H6         -44.0737    19.6621    10.8722 H            1 746999   0.0000
    50 H7         -43.5259    16.9043     7.5738 H            1 746999   0.0000
    51 H8         -43.3661    22.3099     5.8762 H            1 746999   0.0000
    52 H9         -46.4758    21.3076     2.9117 H            1 746999   0.0000
    53 H10        -45.9501    22.0678     0.6960 H            1 746999   0.0000
    54 H11        -42.0045    22.7360     1.8877 H            1 746999   0.0000
    55 H12        -42.5524    22.0489     4.1226 H            1 746999   0.0000
    56 H13        -43.1482    24.7878    -1.1732 H            1 746999   0.0000
    57 H14        -44.2030    24.9006     0.0683 H            1 746999   0.0000
    58 H15        -42.6159    24.6563     0.3650 H            1 746999   0.0000
    59 H16        -44.4873    22.9748    -2.1905 H            1 746999   0.0000
    60 H17        -44.9063    21.6672    -1.3066 H            1 746999   0.0000
    61 H18        -45.5605    23.1248    -0.9688 H            1 746999   0.0000
    62 H19        -42.1294    22.6305    -1.7705 H            1 746999   0.0000
    63 H20        -41.5459    22.5213    -0.2493 H            1 746999   0.0000
    64 H21        -42.4284    21.2980    -0.8750 H            1 746999   0.0000
    65 H22        -40.8736    15.4422    12.2018 H            1 746999   0.0000
    66 H23        -41.7197    18.9982    12.3232 H            1 746999   0.0000
    67 H24        -41.1401    20.3327    14.2306 H            1 746999   0.0000
    68 H25        -39.6206    16.9681    16.1345 H            1 746999   0.0000
    69 H26        -40.1545    15.6639    14.2184 H            1 746999   0.0000
    70 H27        -43.1588    14.8043     7.0860 H            1 746999   0.0000
    71 H28        -41.7791    14.1528     7.6680 H            1 746999   0.0000
    72 H29        -43.2132    13.7713     8.3496 H            1 746999   0.0000
    73 H30        -38.3990    18.6194    19.5475 H            1 746999   0.0000
    74 H31        -37.4399    19.8197    20.1006 H            1 746999   0.0000
    75 H32        -37.6728    20.9710    18.0128 H            1 746999   0.0000
    76 H33        -39.1508    20.7092    18.6561 H            1 746999   0.0000
    77 H34        -36.9410    19.1780    16.1004 H            1 746999   0.0000
    78 H35        -38.0283    17.9844    15.8557 H            1 746999   0.0000
    79 H36        -36.1889    17.3016    17.2940 H            1 746999   0.0000
    80 H37        -37.6460    17.1244    18.0096 H            1 746999   0.0000
@<TRIPOS>BOND
     1    1    2      ar
     2    1    7      ar
     3    1    8       1
     4    2    3       1
     5    2    4      ar
     6    4    5      ar
     7    4   15       1
     8    5    6      ar
     9    6    7      ar
    10    8    9       1
    11    8   14       2
    12    9   10       2
    13   10   11       1
    14   10   29       1
    15   11   12       2
    16   11   13       1
    17   13   14       1
    18   13   35       1
    19   15   16      am
    20   16   17       2
    21   16   18       1
    22   18   19      ar
    23   18   23      ar
    24   19   20      ar
    25   20   21      ar
    26   21   22      ar
    27   21   24       1
    28   22   23      ar
    29   24   25       1
    30   24   26       1
    31   24   27       1
    32   28   29       1
    33   28   30      ar
    34   28   34      ar
    35   30   31      ar
    36   31   32      ar
    37   32   33      ar
    38   32   36       1
    39   33   34      ar
    40   36   37       2
    41   36   40      am
    42   38   39       1
    43   38   43       1
    44   39   40       1
    45   40   41       1
    46   41   42       1
    47   42   43       1
    48    3   44       1
    49    3   45       1
    50    3   46       1
    51    5   47       1
    52    6   48       1
    53    7   49       1
    54   14   50       1
    55   15   51       1
    56   19   52       1
    57   20   53       1
    58   22   54       1
    59   23   55       1
    60   25   56       1
    61   25   57       1
    62   25   58       1
    63   26   59       1
    64   26   60       1
    65   26   61       1
    66   27   62       1
    67   27   63       1
    68   27   64       1
    69   29   65       1
    70   30   66       1
    71   31   67       1
    72   33   68       1
    73   34   69       1
    74   35   70       1
    75   35   71       1
    76   35   72       1
    77   38   73       1
    78   38   74       1
    79   39   75       1
    80   39   76       1
    81   41   77       1
    82   41   78       1
    83   42   79       1
    84   42   80       1
@<TRIPOS>SUBSTRUCTURE
     1 746999      1 GROUP             4 A     746     0 **** 746 A 999
