@<TRIPOS>MOLECULE
2rlf_RIM_1_ligand
   35    37     1     0     0
SMALL
NO_CHARGES


@<TRIPOS>ATOM
     1 CA         -23.7770     4.5610    -4.3490 C.3          1 RIM199   0.0000
     2 CB         -23.3310     5.5510    -5.4350 C.3          1 RIM199   0.0000
     3 NC         -21.8620     5.4190    -5.6390 N.4          1 RIM199   1.0000
     4 CD         -24.0600     5.3020    -6.7820 C.3          1 RIM199   0.0000
     5 CE1        -23.3800     4.1630    -7.5610 C.3          1 RIM199   0.0000
     6 CE2        -25.5430     4.9490    -6.5560 C.3          1 RIM199   0.0000
     7 CE3        -23.9700     6.5910    -7.6100 C.3          1 RIM199   0.0000
     8 CF1        -24.0920     3.9710    -8.9050 C.3          1 RIM199   0.0000
     9 CF2        -26.2370     4.7720    -7.9080 C.3          1 RIM199   0.0000
    10 CF3        -24.6660     6.3970    -8.9570 C.3          1 RIM199   0.0000
    11 CG1        -25.5600     3.6370    -8.6650 C.3          1 RIM199   0.0000
    12 CG2        -26.1290     6.0570    -8.7150 C.3          1 RIM199   0.0000
    13 CG3        -23.9960     5.2580    -9.7130 C.3          1 RIM199   0.0000
    14 HA1        -24.7633     4.6443    -4.2067 H            1 RIM199   0.0000
    15 HA2        -23.5595     3.6288    -4.6381 H            1 RIM199   0.0000
    16 HA3        -23.2986     4.7653    -3.4949 H            1 RIM199   0.0000
    17 HB         -23.5318     6.4807    -5.1264 H            1 RIM199   0.0000
    18 HC1        -21.6356     5.6432    -6.5869 H            1 RIM199   0.0000
    19 HC2        -21.3825     6.0456    -5.0246 H            1 RIM199   0.0000
    20 HE11       -23.4343     3.3170    -7.0306 H            1 RIM199   0.0000
    21 HE12       -22.4206     4.3948    -7.7216 H            1 RIM199   0.0000
    22 HE21       -25.9874     5.6864    -6.0472 H            1 RIM199   0.0000
    23 HE22       -25.6074     4.0983    -6.0344 H            1 RIM199   0.0000
    24 HE31       -23.0086     6.8193    -7.7639 H            1 RIM199   0.0000
    25 HE32       -24.4140     7.3360    -7.1122 H            1 RIM199   0.0000
    26 HF1        -23.6575     3.2255    -9.4103 H            1 RIM199   0.0000
    27 HF2        -27.2008     4.5486    -7.7624 H            1 RIM199   0.0000
    28 HF3        -24.6013     7.2390    -9.4925 H            1 RIM199   0.0000
    29 HG11       -25.6245     2.7961    -8.1276 H            1 RIM199   0.0000
    30 HG12       -26.0177     3.5065    -9.5445 H            1 RIM199   0.0000
    31 HG21       -26.5633     6.8029    -8.2100 H            1 RIM199   0.0000
    32 HG22       -26.5908     5.9362    -9.5937 H            1 RIM199   0.0000
    33 HG31       -24.4524     5.1312   -10.5937 H            1 RIM199   0.0000
    34 HG32       -23.0335     5.4825    -9.8656 H            1 RIM199   0.0000
    35 HC3        -21.5813     4.4796    -5.4425 H            1 RIM199   0.0000
@<TRIPOS>BOND
     1    1    2       1
     2    2    3       1
     3    2    4       1
     4    4    5       1
     5    4    6       1
     6    4    7       1
     7    5    8       1
     8    6    9       1
     9    7   10       1
    10    8   11       1
    11    8   13       1
    12    9   11       1
    13    9   12       1
    14   10   12       1
    15   10   13       1
    16    1   14       1
    17    1   15       1
    18    1   16       1
    19    2   17       1
    20    3   18       1
    21    3   19       1
    22    5   20       1
    23    5   21       1
    24    6   22       1
    25    6   23       1
    26    7   24       1
    27    7   25       1
    28    8   26       1
    29    9   27       1
    30   10   28       1
    31   11   29       1
    32   11   30       1
    33   12   31       1
    34   12   32       1
    35   13   33       1
    36   13   34       1
    37    3   35       1
@<TRIPOS>SUBSTRUCTURE
     1 RIM199      1 GROUP             4 A     RIM     0 **** RIM A 199
