@<TRIPOS>MOLECULE
./coach420/2rkm/ligand.pdb
 19 18 0 0 0
SMALL
GASTEIGER

@<TRIPOS>ATOM
      1  N          6.8580   17.0300   15.4260 N.3   2001  LYS2001    -0.1231
      2  CA         6.3580   18.3180   14.8710 C.3   2001  LYS2001     0.1693
      3  C          5.2260   18.8750   15.7370 C.2   2001  LYS2001     0.2593
      4  O          4.4490   18.1430   16.3590 O.2   2001  LYS2001    -0.2718
      5  CB         5.9260   18.2340   13.4140 C.3   2001  LYS2001     0.0285
      6  CG         5.1640   16.9910   13.0030 C.3   2001  LYS2001     0.0035
      7  CD         5.0810   16.9400   11.4710 C.3   2001  LYS2001     0.0206
      8  CE         6.3810   16.3250   10.9620 C.3   2001  LYS2001     0.1093
      9  NZ         6.4700   14.8860   11.3450 N.3   2001  LYS2001    -0.1314
     10  N          5.2010   20.1990   15.8510 N.am  2002  LYS2002    -0.1944
     11  CA         4.2160   20.8820   16.6810 C.3   2002  LYS2002     0.1978
     12  C          2.8770   21.1230   16.0030 C.2   2002  LYS2002     0.3842
     13  O          2.8140   21.0780   14.7630 O.co2 2002  LYS2002    -0.2437
     14  CB         4.7530   22.2500   17.1500 C.3   2002  LYS2002     0.0333
     15  CG         5.9940   22.1200   18.0240 C.3   2002  LYS2002     0.0039
     16  CD         5.8980   22.9130   19.3070 C.3   2002  LYS2002     0.0206
     17  CE         7.1950   22.8600   20.1030 C.3   2002  LYS2002     0.1093
     18  NZ         7.0610   22.0360   21.3460 N.3   2002  LYS2002    -0.1314
     19  OXT        1.8840   21.3300   16.7560 O.co2 2002  LYS2002    -0.2437
@<TRIPOS>BOND
     1     1     2    1
     2     2     5    1
     3     2     3    1
     4     3    10   am
     5     3     4    2
     6     5     6    1
     7     6     7    1
     8     7     8    1
     9     8     9    1
    10    10    11    1
    11    11    12    1
    12    11    14    1
    13    12    13   ar
    14    12    19   ar
    15    14    15    1
    16    15    16    1
    17    16    17    1
    18    17    18    1
