@<TRIPOS>MOLECULE
5fwn_NAP_1_ligand
   42    44     1     0     0
SMALL
NO_CHARGES


@<TRIPOS>ATOM
     1 PA         -19.0070    -0.7220    32.0280 P.3          1 NAP1291   0.0000
     2 O1A        -17.9970    -0.6510    33.1440 O.co2        1 NAP1291   0.0000
     3 O2A        -19.3980    -2.1180    31.5820 O.co2        1 NAP1291  -1.0000
     4 O5B        -20.3420     0.0840    32.5230 O.3          1 NAP1291   0.0000
     5 C5B        -20.7200     1.2990    31.8740 C.3          1 NAP1291   0.0000
     6 C4B        -21.9990     1.9420    32.4180 C.3          1 NAP1291   0.0000
     7 O4B        -22.7390     1.1020    33.3310 O.3          1 NAP1291   0.0000
     8 C3B        -21.7620     3.2820    33.1420 C.3          1 NAP1291   0.0000
     9 O3B        -22.4140     4.3370    32.4290 O.3          1 NAP1291   0.0000
    10 C2B        -22.3640     3.0540    34.5270 C.3          1 NAP1291   0.0000
    11 O2B        -22.9160     4.2020    35.2050 O.3          1 NAP1291   0.0000
    12 C1B        -23.4300     2.0320    34.1670 C.3          1 NAP1291   0.0000
    13 N9A        -24.0640     1.4870    35.3840 N.pl3        1 NAP1291   0.0000
    14 C8A        -23.5400     0.5810    36.2460 C.2          1 NAP1291   0.0000
    15 N7A        -24.4060     0.3490    37.2690 N.2          1 NAP1291   0.0000
    16 C5A        -25.4950     1.1240    37.0560 C.ar         1 NAP1291   0.0000
    17 C6A        -26.7870     1.3470    37.7390 C.ar         1 NAP1291   0.0000
    18 N6A        -27.0120     0.6530    38.8710 N.pl3        1 NAP1291   0.0000
    19 N1A        -27.6810     2.2170    37.1710 N.ar         1 NAP1291   0.0000
    20 C2A        -27.3950     2.8920    36.0230 C.ar         1 NAP1291   0.0000
    21 N3A        -26.2250     2.7520    35.3510 N.ar         1 NAP1291   0.0000
    22 C4A        -25.2690     1.8870    35.8070 C.ar         1 NAP1291   0.0000
    23 O3         -18.3630     0.1880    30.8220 O.3          1 NAP1291   0.0000
    24 PN         -18.4740     0.0950    29.1940 P.3          1 NAP1291   0.0000
    25 O1N        -17.0550    -0.1210    28.6930 O.co2        1 NAP1291   0.0000
    26 O2N        -19.2050     1.3040    28.6500 O.co2        1 NAP1291  -1.0000
    27 O5D        -19.3750    -1.2340    28.8670 O.co2        1 NAP1291  -1.0000
    28 P2B        -22.0030     5.3440    35.9020 P.3          1 NAP1291   0.0000
    29 O1X        -23.0640     6.3160    36.3490 O.co2        1 NAP1291   0.0000
    30 O2X        -21.3370     4.7090    37.1120 O.co2        1 NAP1291  -1.0000
    31 O3X        -21.0440     5.8050    34.7790 O.co2        1 NAP1291  -1.0000
    32 H5B1       -20.8578     1.1040    30.9029 H            1 NAP1291   0.0000
    33 H5B2       -19.9722     1.9545    31.9795 H            1 NAP1291   0.0000
    34 H4B        -22.5941     2.1277    31.6361 H            1 NAP1291   0.0000
    35 H3B        -20.7822     3.4675    33.2161 H            1 NAP1291   0.0000
    36 H5         -21.9090     5.1900    32.5607 H            1 NAP1291   0.0000
    37 H2B        -21.6803     2.6223    35.1154 H            1 NAP1291   0.0000
    38 H1B        -24.1331     2.4871    33.6205 H            1 NAP1291   0.0000
    39 H8A        -22.6454     0.1459    36.1443 H            1 NAP1291   0.0000
    40 H6A1       -27.8720     0.7712    39.3674 H            1 NAP1291   0.0000
    41 H6A2       -26.3191     0.0194    39.2152 H            1 NAP1291   0.0000
    42 H2A        -28.0809     3.5214    35.6578 H            1 NAP1291   0.0000
@<TRIPOS>BOND
     1    1    2      ar
     2    1    3      ar
     3    1    4       1
     4    1   23       1
     5    4    5       1
     6    5    6       1
     7    6    7       1
     8    6    8       1
     9    7   12       1
    10    8    9       1
    11    8   10       1
    12   10   11       1
    13   10   12       1
    14   11   28       1
    15   12   13       1
    16   13   14       1
    17   13   22       1
    18   14   15       2
    19   15   16       1
    20   16   17      ar
    21   16   22      ar
    22   17   18       1
    23   17   19      ar
    24   19   20      ar
    25   20   21      ar
    26   21   22      ar
    27   23   24       1
    28   24   25      ar
    29   24   26      ar
    30   24   27      ar
    31   28   29      ar
    32   28   30      ar
    33   28   31      ar
    34   20   42       1
    35    5   32       1
    36    5   33       1
    37    6   34       1
    38    8   35       1
    39    9   36       1
    40   10   37       1
    41   12   38       1
    42   14   39       1
    43   18   40       1
    44   18   41       1
@<TRIPOS>SUBSTRUCTURE
     1 NAP1291     1 GROUP             4 A     NAP     0 **** NAP A1291
