@<TRIPOS>MOLECULE
./coach420/1the/ligand.pdb
 35 36 0 0 0
SMALL
GASTEIGER

@<TRIPOS>ATOM
      1  C1         9.2120   63.8840   47.4330 C.2   901  0E6901      0.4218
      2  O1        10.4160   63.8740   47.7010 O.2   901  0E6901     -0.2245
      3  O2         8.2760   64.8100   48.0970 O.3   901  0E6901     -0.4285
      4  C2         8.9630   65.7850   48.9910 C.3   901  0E6901      0.2368
      5  C3         9.2330   67.1120   48.3300 C.ar  901  0E6901      0.0213
      6  C4         8.2130   67.7980   47.6860 C.ar  901  0E6901     -0.0007
      7  C5         8.4010   69.0680   47.1630 C.ar  901  0E6901     -0.0002
      8  C6         9.6260   69.6600   47.2490 C.ar  901  0E6901     -0.0000
      9  C7        10.6840   68.9710   47.8580 C.ar  901  0E6901     -0.0002
     10  C8        10.4740   67.6980   48.4010 C.ar  901  0E6901     -0.0007
     11  N          8.7060   63.1220   46.4740 N.am  901  0E6901     -0.1611
     12  CA         9.5320   62.1110   45.8840 C.3   901  0E6901      0.1762
     13  C         10.2640   62.6870   44.6470 C.2   901  0E6901      0.2617
     14  O          9.6720   63.3660   43.8010 O.2   901  0E6901     -0.2715
     15  CB         8.6850   60.8750   45.5440 C.3   901  0E6901      0.0349
     16  CG         7.5420   60.5950   46.5450 C.3   901  0E6901      0.0492
     17  CD         7.8340   59.4440   47.4680 C.3   901  0E6901      0.2205
     18  NE         7.6860   59.7890   48.8690 N.pl3 901  0E6901     -0.0865
     19  CZ         6.9520   60.7950   49.3300 C.cat 901  0E6901      0.5346
     20  NH1        5.6660   60.6100   49.5530 N.pl3 901  0E6901      0.1354
     21  NH2        7.5600   61.6810   50.1010 N.pl3 901  0E6901      0.1354
     22  C21       12.2960   62.1070   42.2730 C.2   901  0E6901      0.1732
     23  O21       12.8730   62.4490   41.2390 O.2   901  0E6901     -0.2942
     24  C31       12.3220   63.0210   43.4680 C.3   901  0E6901      0.1817
     25  N3        11.5660   62.4800   44.5860 N.am  901  0E6901     -0.1956
     26  C41       13.7700   63.2350   43.8480 C.3   901  0E6901      0.1717
     27  O'        14.1690   61.9820   44.3940 O.3   901  0E6901     -0.3467
     28  C'        15.5160   62.1100   44.8370 C.3   901  0E6901      0.1687
     29  C1'       16.3100   60.8330   44.7770 C.ar  901  0E6901      0.0073
     30  C2'       15.6670   59.5990   44.7760 C.ar  901  0E6901     -0.0019
     31  C3'       16.3740   58.4190   44.6890 C.ar  901  0E6901     -0.0002
     32  C4'       17.7460   58.4510   44.6010 C.ar  901  0E6901     -0.0000
     33  C5'       18.4160   59.6720   44.6180 C.ar  901  0E6901     -0.0002
     34  C6'       17.6900   60.8620   44.7090 C.ar  901  0E6901     -0.0019
     35  C11       12.1900   60.6670   42.6240 C.3   901  0E6901      0.0742
@<TRIPOS>BOND
     1     1    11   am
     2     1     2    2
     3     1     3    1
     4     3     4    1
     5     4     5    1
     6     5     6   ar
     7     5    10   ar
     8     6     7   ar
     9     7     8   ar
    10     8     9   ar
    11     9    10   ar
    12    11    12    1
    13    12    13    1
    14    12    15    1
    15    13    14    2
    16    13    25   am
    17    15    16    1
    18    16    17    1
    19    17    18    1
    20    18    19    2
    21    19    20    1
    22    19    21    1
    23    22    23    2
    24    22    35    1
    25    22    24    1
    26    24    26    1
    27    24    25    1
    28    26    27    1
    29    27    28    1
    30    28    29    1
    31    29    34   ar
    32    29    30   ar
    33    30    31   ar
    34    31    32   ar
    35    32    33   ar
    36    33    34   ar
