@<TRIPOS>MOLECULE
3p3e_3P3_1_ligand
   44    45     1     0     0
SMALL
NO_CHARGES


@<TRIPOS>ATOM
     1 O01        -22.1860    10.4250    -8.0330 O.2          1 3P3501   0.0000
     2 C02        -23.2120     9.7710    -7.9090 C.2          1 3P3501   0.0000
     3 N03        -23.1070     8.4040    -7.5480 N.am         1 3P3501   0.0000
     4 O04        -21.8990     7.9580    -7.3380 O.3          1 3P3501  -1.0000
     5 C05        -24.5160    10.4050    -8.2740 C.3          1 3P3501   0.0000
     6 N06        -24.7770    11.5270    -7.4000 N.am         1 3P3501   0.0000
     7 C07        -26.0880    11.7060    -6.8110 C.2          1 3P3501   0.0000
     8 O08        -27.0140    10.9650    -7.1090 O.2          1 3P3501   0.0000
     9 C09        -26.3030    12.9500    -5.9900 C.ar         1 3P3501   0.0000
    10 C10        -25.3760    14.0230    -6.1360 C.ar         1 3P3501   0.0000
    11 C11        -25.5720    15.2640    -5.3790 C.ar         1 3P3501   0.0000
    12 C12        -26.6850    15.3700    -4.5040 C.ar         1 3P3501   0.0000
    13 C13        -27.6290    14.2900    -4.3630 C.ar         1 3P3501   0.0000
    14 C14        -27.4370    13.0580    -5.1140 C.ar         1 3P3501   0.0000
    15 C15        -26.9010    16.5680    -3.7740 C.1          1 3P3501   0.0000
    16 C16        -27.0890    17.5850    -3.1720 C.1          1 3P3501   0.0000
    17 C17        -27.3080    18.7610    -2.5050 C.1          1 3P3501   0.0000
    18 C18        -27.5020    19.7940    -1.9300 C.1          1 3P3501   0.0000
    19 C19        -27.7380    21.0280    -1.2650 C.ar         1 3P3501   0.0000
    20 C20        -27.1800    22.2300    -1.7010 C.ar         1 3P3501   0.0000
    21 C21        -27.4420    23.4190    -1.0160 C.ar         1 3P3501   0.0000
    22 C22        -28.2660    23.4190     0.1060 C.ar         1 3P3501   0.0000
    23 C23        -28.8270    22.2250     0.5390 C.ar         1 3P3501   0.0000
    24 C24        -28.5640    21.0410    -0.1450 C.ar         1 3P3501   0.0000
    25 C25        -24.7440    10.6810    -9.7650 C.3          1 3P3501   0.0000
    26 C26        -23.7890    11.7920   -10.2430 C.3          1 3P3501   0.0000
    27 O27        -24.5050     9.4800   -10.5000 O.3          1 3P3501   0.0000
    28 H1         -23.9113     7.8164    -7.4596 H            1 3P3501   0.0000
    29 H2         -25.2079     9.7251    -8.0310 H            1 3P3501   0.0000
    30 H3         -24.0486    12.1827    -7.2012 H            1 3P3501   0.0000
    31 H4         -24.5943    13.9300    -6.7527 H            1 3P3501   0.0000
    32 H5         -24.9306    16.0248    -5.4779 H            1 3P3501   0.0000
    33 H6         -28.4138    14.3868    -3.7508 H            1 3P3501   0.0000
    34 H7         -28.0829    12.3001    -5.0220 H            1 3P3501   0.0000
    35 H8         -26.5895    22.2405    -2.5080 H            1 3P3501   0.0000
    36 H9         -27.0351    24.2755    -1.3336 H            1 3P3501   0.0000
    37 H10        -28.4521    24.2709     0.5955 H            1 3P3501   0.0000
    38 H11        -29.4209    22.2154     1.3435 H            1 3P3501   0.0000
    39 H12        -28.9750    20.1868     0.1735 H            1 3P3501   0.0000
    40 H13        -25.6897    10.9735    -9.9069 H            1 3P3501   0.0000
    41 H14        -23.9421    11.9676   -11.2155 H            1 3P3501   0.0000
    42 H15        -23.9626    12.6277    -9.7220 H            1 3P3501   0.0000
    43 H16        -22.8426    11.5016   -10.1017 H            1 3P3501   0.0000
    44 H17        -24.7277     8.6898    -9.9290 H            1 3P3501   0.0000
@<TRIPOS>BOND
     1    1    2       2
     2    2    3      am
     3    2    5       1
     4    3    4       1
     5    5    6       1
     6    5   25       1
     7    6    7      am
     8    7    8       2
     9    7    9       1
    10    9   10      ar
    11    9   14      ar
    12   10   11      ar
    13   11   12      ar
    14   12   13      ar
    15   12   15       1
    16   13   14      ar
    17   15   16       3
    18   16   17       1
    19   17   18       3
    20   18   19       1
    21   19   20      ar
    22   19   24      ar
    23   20   21      ar
    24   21   22      ar
    25   22   23      ar
    26   23   24      ar
    27   25   26       1
    28   25   27       1
    29    3   28       1
    30   27   44       1
    31    5   29       1
    32    6   30       1
    33   10   31       1
    34   11   32       1
    35   13   33       1
    36   14   34       1
    37   20   35       1
    38   21   36       1
    39   22   37       1
    40   23   38       1
    41   24   39       1
    42   25   40       1
    43   26   41       1
    44   26   42       1
    45   26   43       1
@<TRIPOS>SUBSTRUCTURE
     1 3P3501      1 GROUP             4 A     3P3     0 **** 3P3 A 501
