@<TRIPOS>MOLECULE
4qbh_AP5_1_ligand
   81    86     1     0     0
SMALL
NO_CHARGES


@<TRIPOS>ATOM
     1 PA         -16.8380   -23.7270   -32.6870 P.3          1 AP5301   0.0000
     2 O1A        -17.2820   -23.5640   -31.2580 O.co2        1 AP5301   0.0000
     3 O2A        -17.8010   -23.3770   -33.7440 O.co2        1 AP5301  -1.0000
     4 O3A        -15.4660   -22.8680   -32.8930 O.3          1 AP5301   0.0000
     5 PB         -15.1210   -21.3160   -33.0210 P.3          1 AP5301   0.0000
     6 O1B        -13.8890   -21.0660   -32.1690 O.co2        1 AP5301   0.0000
     7 O2B        -16.3450   -20.5750   -32.6010 O.co2        1 AP5301  -1.0000
     8 O3B        -14.8000   -21.0200   -34.5600 O.3          1 AP5301   0.0000
     9 PG         -15.4380   -19.9860   -35.8060 P.3          1 AP5301   0.0000
    10 O1G        -14.8650   -20.2790   -37.1040 O.co2        1 AP5301   0.0000
    11 O2G        -16.7190   -19.1710   -35.4390 O.co2        1 AP5301  -1.0000
    12 O3G        -14.3090   -18.8050   -35.8010 O.3          1 AP5301   0.0000
    13 PD         -13.9060   -17.9130   -37.1450 P.3          1 AP5301   0.0000
    14 O1D        -13.3110   -16.6520   -36.6750 O.co2        1 AP5301   0.0000
    15 O2D        -13.4910   -18.5770   -38.4540 O.co2        1 AP5301  -1.0000
    16 O3D        -15.3620   -17.5960   -37.5280 O.3          1 AP5301   0.0000
    17 PE         -15.8850   -16.2700   -37.0310 P.3          1 AP5301   0.0000
    18 O1E        -17.3170   -16.5770   -37.2000 O.co2        1 AP5301   0.0000
    19 O2E        -15.5410   -15.6370   -35.6620 O.co2        1 AP5301  -1.0000
    20 O5F        -16.2740   -25.1520   -32.8180 O.3          1 AP5301   0.0000
    21 C5F        -15.8250   -25.6700   -34.1100 C.3          1 AP5301   0.0000
    22 C4F        -16.3700   -27.0520   -34.4170 C.3          1 AP5301   0.0000
    23 O4F        -15.6970   -28.0330   -33.5450 O.3          1 AP5301   0.0000
    24 C3F        -17.8680   -27.1720   -34.2320 C.3          1 AP5301   0.0000
    25 O3F        -18.3020   -28.1540   -35.1770 O.3          1 AP5301   0.0000
    26 C2F        -17.9890   -27.7420   -32.8520 C.3          1 AP5301   0.0000
    27 O2F        -19.1330   -28.5980   -32.6410 O.3          1 AP5301   0.0000
    28 C1F        -16.6830   -28.5320   -32.6250 C.3          1 AP5301   0.0000
    29 N9A        -16.1420   -28.4800   -31.2830 N.pl3        1 AP5301   0.0000
    30 C8A        -16.1830   -27.4820   -30.3740 C.2          1 AP5301   0.0000
    31 N7A        -15.5190   -27.7780   -29.2020 N.2          1 AP5301   0.0000
    32 C5A        -15.0800   -29.0450   -29.4000 C.ar         1 AP5301   0.0000
    33 C6A        -14.3160   -29.9730   -28.5710 C.ar         1 AP5301   0.0000
    34 N6A        -13.9220   -29.6420   -27.3080 N.pl3        1 AP5301   0.0000
    35 N1A        -14.0110   -31.1560   -29.1140 N.ar         1 AP5301   0.0000
    36 C2A        -14.3340   -31.5040   -30.3660 C.ar         1 AP5301   0.0000
    37 N3A        -15.0740   -30.7140   -31.1820 N.ar         1 AP5301   0.0000
    38 C4A        -15.4340   -29.4830   -30.7380 C.ar         1 AP5301   0.0000
    39 O5J        -15.6010   -15.0820   -38.0670 O.3          1 AP5301   0.0000
    40 C5J        -15.9250   -15.3430   -39.4460 C.3          1 AP5301   0.0000
    41 C4J        -15.2430   -14.3060   -40.3350 C.3          1 AP5301   0.0000
    42 O4J        -15.7420   -13.0160   -39.9830 O.3          1 AP5301   0.0000
    43 C3J        -13.7440   -14.1700   -40.1540 C.3          1 AP5301   0.0000
    44 O3J        -13.0230   -15.1880   -40.8890 O.3          1 AP5301   0.0000
    45 C2J        -13.5030   -12.7380   -40.6340 C.3          1 AP5301   0.0000
    46 O2J        -13.5720   -12.6300   -42.0820 O.3          1 AP5301   0.0000
    47 C1J        -14.6690   -12.0400   -40.0020 C.3          1 AP5301   0.0000
    48 N9B        -14.4730   -11.5690   -38.6290 N.pl3        1 AP5301   0.0000
    49 C8B        -15.1100   -12.0340   -37.5500 C.2          1 AP5301   0.0000
    50 N7B        -14.6570   -11.3830   -36.4600 N.2          1 AP5301   0.0000
    51 C5B        -13.7530   -10.4560   -36.9050 C.ar         1 AP5301   0.0000
    52 C6B        -12.8900    -9.4300   -36.3300 C.ar         1 AP5301   0.0000
    53 N6B        -12.9990    -9.2780   -34.9880 N.pl3        1 AP5301   0.0000
    54 N1B        -12.1320    -8.6610   -37.0990 N.ar         1 AP5301   0.0000
    55 C2B        -12.0300    -8.8310   -38.4480 C.ar         1 AP5301   0.0000
    56 N3B        -12.8310    -9.7790   -39.0270 N.ar         1 AP5301   0.0000
    57 C4B        -13.6510   -10.5530   -38.3130 C.ar         1 AP5301   0.0000
    58 H5F1       -14.8260   -25.7153   -34.1053 H            1 AP5301   0.0000
    59 H5F2       -16.1268   -25.0420   -34.8273 H            1 AP5301   0.0000
    60 H4F        -16.1512   -27.2730   -35.3674 H            1 AP5301   0.0000
    61 H3F        -18.3431   -26.2980   -34.3342 H            1 AP5301   0.0000
    62 H5         -19.2915   -28.2762   -35.1001 H            1 AP5301   0.0000
    63 H2F        -18.0265   -26.9885   -32.1956 H            1 AP5301   0.0000
    64 H7         -18.8221   -29.5100   -32.3736 H            1 AP5301   0.0000
    65 H1F        -16.8586   -29.4903   -32.8503 H            1 AP5301   0.0000
    66 H8A        -16.6497   -26.6124   -30.5352 H            1 AP5301   0.0000
    67 H6A1       -13.3994   -30.2951   -26.7599 H            1 AP5301   0.0000
    68 H6A2       -14.1557   -28.7462   -26.9300 H            1 AP5301   0.0000
    69 H2A        -14.0153   -32.3855   -30.7144 H            1 AP5301   0.0000
    70 H5J1       -16.9157   -15.2895   -39.5714 H            1 AP5301   0.0000
    71 H5J2       -15.6063   -16.2573   -39.6959 H            1 AP5301   0.0000
    72 H4J        -15.4502   -14.4967   -41.2945 H            1 AP5301   0.0000
    73 H3J        -13.5183   -14.2380   -39.1822 H            1 AP5301   0.0000
    74 H17        -12.8960   -15.9918   -40.3078 H            1 AP5301   0.0000
    75 H2J        -12.6361   -12.3812   -40.2859 H            1 AP5301   0.0000
    76 H19        -12.6978   -12.2947   -42.4333 H            1 AP5301   0.0000
    77 H1J        -14.9392   -11.2680   -40.5773 H            1 AP5301   0.0000
    78 H8B        -15.8092   -12.7489   -37.5511 H            1 AP5301   0.0000
    79 H6B1       -12.4418    -8.5953   -34.5152 H            1 AP5301   0.0000
    80 H6B2       -13.6366    -9.8485   -34.4703 H            1 AP5301   0.0000
    81 H2B        -11.3947    -8.2845   -38.9936 H            1 AP5301   0.0000
@<TRIPOS>BOND
     1    1    2      ar
     2    1    3      ar
     3    1    4       1
     4    1   20       1
     5    4    5       1
     6    5    6      ar
     7    5    7      ar
     8    5    8       1
     9    8    9       1
    10    9   10      ar
    11    9   11      ar
    12    9   12       1
    13   12   13       1
    14   13   14      ar
    15   13   15      ar
    16   13   16       1
    17   16   17       1
    18   17   18      ar
    19   17   19      ar
    20   17   39       1
    21   20   21       1
    22   21   22       1
    23   22   23       1
    24   22   24       1
    25   23   28       1
    26   24   25       1
    27   24   26       1
    28   26   27       1
    29   26   28       1
    30   28   29       1
    31   29   30       1
    32   29   38       1
    33   30   31       2
    34   31   32       1
    35   32   33      ar
    36   32   38      ar
    37   33   34       1
    38   33   35      ar
    39   35   36      ar
    40   36   37      ar
    41   37   38      ar
    42   39   40       1
    43   40   41       1
    44   41   42       1
    45   41   43       1
    46   42   47       1
    47   43   44       1
    48   43   45       1
    49   45   46       1
    50   45   47       1
    51   47   48       1
    52   48   49       1
    53   48   57       1
    54   49   50       2
    55   50   51       1
    56   51   52      ar
    57   51   57      ar
    58   52   53       1
    59   52   54      ar
    60   54   55      ar
    61   55   56      ar
    62   56   57      ar
    63   55   81       1
    64   53   80       1
    65   53   79       1
    66   49   78       1
    67   47   77       1
    68   21   58       1
    69   21   59       1
    70   22   60       1
    71   24   61       1
    72   25   62       1
    73   26   63       1
    74   27   64       1
    75   28   65       1
    76   30   66       1
    77   34   67       1
    78   34   68       1
    79   36   69       1
    80   40   70       1
    81   40   71       1
    82   41   72       1
    83   43   73       1
    84   44   74       1
    85   45   75       1
    86   46   76       1
@<TRIPOS>SUBSTRUCTURE
     1 AP5301      1 GROUP             4 A     AP5     0 **** AP5 A 301
