@<TRIPOS>MOLECULE
4c0b_ATP_1_ligand
   43    45     1     0     0
SMALL
NO_CHARGES


@<TRIPOS>ATOM
     1 PG         -21.1020   -24.0310    48.2950 P.3          1 ATP1446   0.0000
     2 O1G        -21.6040   -23.1550    49.4030 O.co2        1 ATP1446   0.0000
     3 O2G        -22.2240   -24.6440    47.5120 O.co2        1 ATP1446  -1.0000
     4 O3G        -20.2330   -23.2730    47.3350 O.co2        1 ATP1446  -1.0000
     5 PB         -19.1020   -26.1060    48.5460 P.3          1 ATP1446   0.0000
     6 O1B        -18.1360   -25.3300    47.7260 O.co2        1 ATP1446   0.0000
     7 O2B        -19.6340   -27.2670    47.7630 O.co2        1 ATP1446  -1.0000
     8 O3B        -20.2410   -25.2170    48.9500 O.3          1 ATP1446   0.0000
     9 PA         -17.1180   -26.2400    50.5900 P.3          1 ATP1446   0.0000
    10 O1A        -15.9130   -26.8710    49.9170 O.co2        1 ATP1446   0.0000
    11 O2A        -16.9690   -24.7640    50.5500 O.co2        1 ATP1446  -1.0000
    12 O3A        -18.3620   -26.6500    49.8610 O.3          1 ATP1446   0.0000
    13 O5'        -17.1940   -26.7610    52.1060 O.3          1 ATP1446   0.0000
    14 C5'        -18.0920   -26.1290    53.0450 C.3          1 ATP1446   0.0000
    15 C4'        -17.4070   -25.9650    54.3830 C.3          1 ATP1446   0.0000
    16 O4'        -16.8760   -27.2330    54.8350 O.3          1 ATP1446   0.0000
    17 C3'        -16.2560   -24.9560    54.4490 C.3          1 ATP1446   0.0000
    18 O3'        -16.3970   -24.0880    55.5700 O.3          1 ATP1446   0.0000
    19 C2'        -15.0130   -25.8490    54.5390 C.3          1 ATP1446   0.0000
    20 O2'        -13.9170   -25.2160    55.1890 O.3          1 ATP1446   0.0000
    21 C1'        -15.5680   -27.0300    55.3300 C.3          1 ATP1446   0.0000
    22 N9         -14.8160   -28.2820    55.2210 N.pl3        1 ATP1446   0.0000
    23 C8         -14.3830   -28.9040    54.0780 C.2          1 ATP1446   0.0000
    24 N7         -13.7670   -30.0410    54.2870 N.2          1 ATP1446   0.0000
    25 C5         -13.7990   -30.1840    55.6670 C.ar         1 ATP1446   0.0000
    26 C6         -13.3320   -31.1980    56.5300 C.ar         1 ATP1446   0.0000
    27 N6         -12.7040   -32.3000    56.1090 N.pl3        1 ATP1446   0.0000
    28 N1         -13.5300   -31.0340    57.8610 N.ar         1 ATP1446   0.0000
    29 C2         -14.1470   -29.9260    58.2910 C.ar         1 ATP1446   0.0000
    30 N3         -14.6390   -28.9100    57.5730 N.ar         1 ATP1446   0.0000
    31 C4         -14.4340   -29.1010    56.2570 C.ar         1 ATP1446   0.0000
    32 H5'1       -18.9073   -26.6970    53.1575 H            1 ATP1446   0.0000
    33 H5'2       -18.3574   -25.2302    52.6962 H            1 ATP1446   0.0000
    34 H4'        -18.1001   -25.6756    55.0432 H            1 ATP1446   0.0000
    35 H3'        -16.2272   -24.4190    53.6059 H            1 ATP1446   0.0000
    36 H5         -15.6344   -23.4414    55.5889 H            1 ATP1446   0.0000
    37 H2'        -14.7409   -26.1484    53.6245 H            1 ATP1446   0.0000
    38 H7         -14.1802   -24.9684    56.1214 H            1 ATP1446   0.0000
    39 H1'        -15.6256   -26.7724    56.2945 H            1 ATP1446   0.0000
    40 H9         -14.5252   -28.5227    53.1645 H            1 ATP1446   0.0000
    41 H10        -12.3962   -32.9837    56.7706 H            1 ATP1446   0.0000
    42 H11        -12.5419   -32.4409    55.1323 H            1 ATP1446   0.0000
    43 H12        -14.2544   -29.8475    59.2821 H            1 ATP1446   0.0000
@<TRIPOS>BOND
     1    1    2      ar
     2    1    3      ar
     3    1    4      ar
     4    1    8       1
     5    5    6      ar
     6    5    7      ar
     7    5    8       1
     8    5   12       1
     9    9   10      ar
    10    9   11      ar
    11    9   12       1
    12    9   13       1
    13   13   14       1
    14   14   15       1
    15   15   16       1
    16   15   17       1
    17   16   21       1
    18   17   18       1
    19   17   19       1
    20   19   20       1
    21   19   21       1
    22   21   22       1
    23   22   23       1
    24   22   31       1
    25   23   24       2
    26   24   25       1
    27   25   26      ar
    28   25   31      ar
    29   26   27       1
    30   26   28      ar
    31   28   29      ar
    32   29   30      ar
    33   30   31      ar
    34   29   43       1
    35   27   42       1
    36   27   41       1
    37   23   40       1
    38   14   32       1
    39   14   33       1
    40   15   34       1
    41   17   35       1
    42   18   36       1
    43   19   37       1
    44   20   38       1
    45   21   39       1
@<TRIPOS>SUBSTRUCTURE
     1 ATP1446     1 GROUP             4 A     ATP     0 **** ATP A1446
