@<TRIPOS>MOLECULE
3lu1_NAD_5_ligand
   70    74     1     0     0
SMALL
NO_CHARGES


@<TRIPOS>ATOM
     1 PA          14.1940   -29.1530   -50.8900 P.3          1 NAD343   0.0000
     2 O1A         13.8760   -29.6010   -49.5280 O.co2        1 NAD343   0.0000
     3 O2A         15.5660   -29.3290   -51.4120 O.co2        1 NAD343  -1.0000
     4 O5B         13.1610   -29.9320   -51.8470 O.3          1 NAD343   0.0000
     5 C5B         13.5560   -30.4000   -53.1270 C.3          1 NAD343   0.0000
     6 C4B         13.0030   -31.7990   -53.3710 C.3          1 NAD343   0.0000
     7 O4B         13.0410   -32.0960   -54.8000 O.3          1 NAD343   0.0000
     8 C3B         13.8970   -32.8300   -52.6860 C.3          1 NAD343   0.0000
     9 O3B         13.0780   -33.8850   -52.1430 O.3          1 NAD343   0.0000
    10 C2B         14.7480   -33.3530   -53.8410 C.3          1 NAD343   0.0000
    11 O2B         15.2160   -34.6890   -53.5610 O.3          1 NAD343   0.0000
    12 C1B         13.7220   -33.3400   -54.9700 C.3          1 NAD343   0.0000
    13 N9A         14.3400   -33.3520   -56.3150 N.pl3        1 NAD343   0.0000
    14 C8A         15.3140   -32.5600   -56.7770 C.2          1 NAD343   0.0000
    15 N7A         15.5990   -32.9030   -58.0370 N.2          1 NAD343   0.0000
    16 C5A         14.7970   -33.8980   -58.3800 C.ar         1 NAD343   0.0000
    17 C6A         14.6310   -34.6400   -59.5340 C.ar         1 NAD343   0.0000
    18 N6A         15.3900   -34.3720   -60.5940 N.pl3        1 NAD343   0.0000
    19 N1A         13.7050   -35.6230   -59.5670 N.ar         1 NAD343   0.0000
    20 C2A         12.9520   -35.8820   -58.5040 C.ar         1 NAD343   0.0000
    21 N3A         13.0850   -35.1890   -57.3760 N.ar         1 NAD343   0.0000
    22 C4A         13.9920   -34.1900   -57.2920 C.ar         1 NAD343   0.0000
    23 O3          13.8250   -27.5980   -51.0190 O.3          1 NAD343   0.0000
    24 PN          12.3390   -26.9470   -50.9210 P.3          1 NAD343   0.0000
    25 O1N         11.3530   -27.8710   -50.3210 O.co2        1 NAD343   0.0000
    26 O2N         12.5050   -25.5920   -50.3510 O.co2        1 NAD343  -1.0000
    27 O5D         12.0240   -26.8180   -52.4730 O.3          1 NAD343   0.0000
    28 C5D         10.6730   -26.7880   -52.9560 C.3          1 NAD343   0.0000
    29 C4D         10.5090   -25.9330   -54.2410 C.3          1 NAD343   0.0000
    30 O4D         10.3410   -24.5320   -53.8900 O.3          1 NAD343   0.0000
    31 C3D         11.6940   -25.9640   -55.2020 C.3          1 NAD343   0.0000
    32 O3D         11.1770   -25.7560   -56.5130 O.3          1 NAD343   0.0000
    33 C2D         12.4980   -24.7500   -54.7730 C.3          1 NAD343   0.0000
    34 O2D         13.3960   -24.3440   -55.8130 O.3          1 NAD343   0.0000
    35 C1D         11.3440   -23.7690   -54.6210 C.3          1 NAD343   0.0000
    36 N1N         11.5190   -22.5810   -53.7710 N.ar         1 NAD343   1.0000
    37 C2N         11.9630   -22.7070   -52.4440 C.ar         1 NAD343   0.0000
    38 C3N         12.0920   -21.5640   -51.6520 C.ar         1 NAD343   0.0000
    39 C7N         12.5830   -21.6810   -50.2030 C.2          1 NAD343   0.0000
    40 O7N         13.0680   -20.7060   -49.6250 O.2          1 NAD343   0.0000
    41 N7N         12.4270   -22.8830   -49.6430 N.am         1 NAD343   0.0000
    42 C4N         11.7670   -20.3100   -52.1820 C.ar         1 NAD343   0.0000
    43 C5N         11.3270   -20.1810   -53.5010 C.ar         1 NAD343   0.0000
    44 C6N         11.1990   -21.3170   -54.2960 C.ar         1 NAD343   0.0000
    45 H5B1        14.5545   -30.4267   -53.1751 H            1 NAD343   0.0000
    46 H5B2        13.2050   -29.7794   -53.8282 H            1 NAD343   0.0000
    47 H4B         12.0667   -31.8675   -53.0266 H            1 NAD343   0.0000
    48 H3B         14.4635   -32.4079   -51.9783 H            1 NAD343   0.0000
    49 H5          12.9625   -34.6038   -52.8286 H            1 NAD343   0.0000
    50 H2B         15.5102   -32.7361   -54.0374 H            1 NAD343   0.0000
    51 H7          14.5521   -35.3535   -53.9040 H            1 NAD343   0.0000
    52 H1B         13.0842   -34.1039   -54.8715 H            1 NAD343   0.0000
    53 H8A         15.7584   -31.8274   -56.2614 H            1 NAD343   0.0000
    54 H6A1        15.2795   -34.9018   -61.4349 H            1 NAD343   0.0000
    55 H6A2        16.0708   -33.6409   -60.5495 H            1 NAD343   0.0000
    56 H2A         12.2711   -36.6128   -58.5524 H            1 NAD343   0.0000
    57 H5D1        10.0872   -26.4055   -52.2415 H            1 NAD343   0.0000
    58 H5D2        10.3853   -27.7244   -53.1571 H            1 NAD343   0.0000
    59 H4D          9.6924   -26.2413   -54.7290 H            1 NAD343   0.0000
    60 H3D         12.2190   -26.8121   -55.1307 H            1 NAD343   0.0000
    61 H17         10.9469   -26.6379   -56.9244 H            1 NAD343   0.0000
    62 H2D         12.9741   -24.9040   -53.9072 H            1 NAD343   0.0000
    63 H19         13.5410   -23.3559   -55.7613 H            1 NAD343   0.0000
    64 H1D         10.9926   -23.5046   -55.5191 H            1 NAD343   0.0000
    65 H2N         12.1848   -23.6074   -52.0698 H            1 NAD343   0.0000
    66 H7N1        12.7229   -23.0377   -48.7004 H            1 NAD343   0.0000
    67 H7N2        12.0142   -23.6286   -50.1662 H            1 NAD343   0.0000
    68 H4N         11.8510   -19.4953   -51.6083 H            1 NAD343   0.0000
    69 H5N         11.1054   -19.2792   -53.8720 H            1 NAD343   0.0000
    70 H6N         10.8796   -21.2336   -55.2399 H            1 NAD343   0.0000
@<TRIPOS>BOND
     1    1    2      ar
     2    1    3      ar
     3    1    4       1
     4    1   23       1
     5    4    5       1
     6    5    6       1
     7    6    7       1
     8    6    8       1
     9    7   12       1
    10    8    9       1
    11    8   10       1
    12   10   11       1
    13   10   12       1
    14   12   13       1
    15   13   14       1
    16   13   22       1
    17   14   15       2
    18   15   16       1
    19   16   17      ar
    20   16   22      ar
    21   17   18       1
    22   17   19      ar
    23   19   20      ar
    24   20   21      ar
    25   21   22      ar
    26   23   24       1
    27   24   25      ar
    28   24   26      ar
    29   24   27       1
    30   27   28       1
    31   28   29       1
    32   29   30       1
    33   29   31       1
    34   30   35       1
    35   31   32       1
    36   31   33       1
    37   33   34       1
    38   33   35       1
    39   35   36       1
    40   36   37      ar
    41   36   44      ar
    42   37   38      ar
    43   38   39       1
    44   38   42      ar
    45   39   40       2
    46   39   41      am
    47   42   43      ar
    48   43   44      ar
    49   44   70       1
    50    5   45       1
    51    5   46       1
    52    6   47       1
    53    8   48       1
    54    9   49       1
    55   10   50       1
    56   11   51       1
    57   12   52       1
    58   14   53       1
    59   18   54       1
    60   18   55       1
    61   20   56       1
    62   43   69       1
    63   28   57       1
    64   28   58       1
    65   29   59       1
    66   31   60       1
    67   32   61       1
    68   33   62       1
    69   34   63       1
    70   35   64       1
    71   37   65       1
    72   41   66       1
    73   41   67       1
    74   42   68       1
@<TRIPOS>SUBSTRUCTURE
     1 NAD343      1 GROUP             4 C     NAD     0 **** NAD C 343
