@<TRIPOS>MOLECULE
5fm6_ADP_1_ligand
   39    41     1     0     0
SMALL
NO_CHARGES


@<TRIPOS>ATOM
     1 PB          29.8900   136.4450    75.2180 P.3          1 ADP501   0.0000
     2 O1B         30.1140   135.8380    73.8960 O.co2        1 ADP501   0.0000
     3 O2B         30.3840   135.5450    76.3350 O.co2        1 ADP501  -1.0000
     4 O3B         28.4240   136.7910    75.4900 O.co2        1 ADP501  -1.0000
     5 PA          31.6570   138.5950    74.3380 P.3          1 ADP501   0.0000
     6 O1A         33.0320   138.0640    74.4650 O.co2        1 ADP501   0.0000
     7 O2A         31.1650   138.3850    72.9170 O.co2        1 ADP501  -1.0000
     8 O3A         30.6850   137.8200    75.3350 O.3          1 ADP501   0.0000
     9 O5'         31.5010   140.1460    74.6950 O.3          1 ADP501   0.0000
    10 C5'         32.0060   140.7450    75.9030 C.3          1 ADP501   0.0000
    11 C4'         32.7210   142.0330    75.5820 C.3          1 ADP501   0.0000
    12 O4'         33.8870   142.1390    76.4260 O.3          1 ADP501   0.0000
    13 C3'         33.2590   142.1920    74.1650 C.3          1 ADP501   0.0000
    14 O3'         33.4250   143.5650    73.8410 O.3          1 ADP501   0.0000
    15 C2'         34.6030   141.4800    74.2670 C.3          1 ADP501   0.0000
    16 O2'         35.5070   141.9480    73.2740 O.3          1 ADP501   0.0000
    17 C1'         35.0590   141.9120    75.6620 C.3          1 ADP501   0.0000
    18 N9          35.8820   140.9250    76.3570 N.pl3        1 ADP501   0.0000
    19 C8          35.4530   139.7670    76.9510 C.2          1 ADP501   0.0000
    20 N7          36.4100   139.0740    77.5170 N.2          1 ADP501   0.0000
    21 C5          37.5490   139.8270    77.2850 C.ar         1 ADP501   0.0000
    22 C6          38.8970   139.6470    77.6430 C.ar         1 ADP501   0.0000
    23 N6          39.3420   138.6090    78.3560 N.pl3        1 ADP501   0.0000
    24 N1          39.7820   140.5880    77.2520 N.ar         1 ADP501   0.0000
    25 C2          39.3390   141.6360    76.5510 C.ar         1 ADP501   0.0000
    26 N3          38.0930   141.9170    76.1600 N.ar         1 ADP501   0.0000
    27 C4          37.2390   140.9700    76.5630 C.ar         1 ADP501   0.0000
    28 H5'1        32.6438   140.1135    76.3439 H            1 ADP501   0.0000
    29 H5'2        31.2438   140.9350    76.5218 H            1 ADP501   0.0000
    30 H4'         32.1093   142.7985    75.7813 H            1 ADP501   0.0000
    31 H3'         32.6629   141.7378    73.5030 H            1 ADP501   0.0000
    32 H5          33.2950   143.6936    72.8579 H            1 ADP501   0.0000
    33 H2'         34.4910   140.4877    74.2147 H            1 ADP501   0.0000
    34 H7          35.0592   142.6495    72.7196 H            1 ADP501   0.0000
    35 H1'         35.5703   142.7682    75.5872 H            1 ADP501   0.0000
    36 H9          34.4959   139.4771    76.9523 H            1 ADP501   0.0000
    37 H10         40.3139   138.5359    78.5796 H            1 ADP501   0.0000
    38 H11         38.7033   137.9049    78.6662 H            1 ADP501   0.0000
    39 H12         40.0358   142.3010    76.2823 H            1 ADP501   0.0000
@<TRIPOS>BOND
     1    1    2      ar
     2    1    3      ar
     3    1    4      ar
     4    1    8       1
     5    5    6      ar
     6    5    7      ar
     7    5    8       1
     8    5    9       1
     9    9   10       1
    10   10   11       1
    11   11   12       1
    12   11   13       1
    13   12   17       1
    14   13   14       1
    15   13   15       1
    16   15   16       1
    17   15   17       1
    18   17   18       1
    19   18   19       1
    20   18   27       1
    21   19   20       2
    22   20   21       1
    23   21   22      ar
    24   21   27      ar
    25   22   23       1
    26   22   24      ar
    27   24   25      ar
    28   25   26      ar
    29   26   27      ar
    30   25   39       1
    31   23   38       1
    32   23   37       1
    33   10   28       1
    34   10   29       1
    35   11   30       1
    36   13   31       1
    37   14   32       1
    38   15   33       1
    39   16   34       1
    40   17   35       1
    41   19   36       1
@<TRIPOS>SUBSTRUCTURE
     1 ADP501      1 GROUP             4 A     ADP     0 **** ADP A 501
