@<TRIPOS>MOLECULE
2isl_FNR_2_ligand
   50    52     1     0     0
SMALL
NO_CHARGES


@<TRIPOS>ATOM
     1 C9A         28.4050    -4.5470    -9.7000 C.ar         1 FNR501   0.0000
     2 N10         27.6730    -4.9070   -10.8540 N.pl3        1 FNR501   0.0000
     3 CAA         28.1130    -4.6480   -12.1630 C.2          1 FNR501   0.0000
     4 N1          27.3180    -4.9000   -13.2240 N.2          1 FNR501   0.0000
     5 C2          27.6870    -4.5590   -14.5040 C.2          1 FNR501   0.0000
     6 O2          26.9740    -4.7810   -15.4470 O.2          1 FNR501   0.0000
     7 N3          28.9650    -3.9260   -14.6910 N.pl3        1 FNR501   0.0000
     8 C4          29.8670    -3.5760   -13.6700 C.2          1 FNR501   0.0000
     9 O4          30.9380    -3.0040   -13.9330 O.2          1 FNR501   0.0000
    10 C4A         29.4180    -3.9580   -12.2680 C.2          1 FNR501   0.0000
    11 N5          30.1420    -3.6190   -11.1800 N.2          1 FNR501   0.0000
    12 C5A         29.6200    -3.8130    -9.9160 C.ar         1 FNR501   0.0000
    13 C6          30.3230    -3.2810    -8.7640 C.ar         1 FNR501   0.0000
    14 C7          29.8750    -3.5030    -7.4710 C.ar         1 FNR501   0.0000
    15 C7M         30.6050    -2.9350    -6.3020 C.3          1 FNR501   0.0000
    16 C8          28.6730    -4.2700    -7.2520 C.ar         1 FNR501   0.0000
    17 C8M         28.1690    -4.5740    -5.8540 C.3          1 FNR501   0.0000
    18 C9          27.9440    -4.7380    -8.3590 C.ar         1 FNR501   0.0000
    19 C1'         26.3640    -5.5100   -10.6740 C.3          1 FNR501   0.0000
    20 C2'         26.4520    -7.0220   -10.3690 C.3          1 FNR501   0.0000
    21 O2'         26.7990    -7.7550   -11.5250 O.3          1 FNR501   0.0000
    22 C3'         25.1320    -7.4320    -9.8240 C.3          1 FNR501   0.0000
    23 O3'         25.0440    -6.9890    -8.4740 O.3          1 FNR501   0.0000
    24 C4'         24.8230    -8.9470    -9.8200 C.3          1 FNR501   0.0000
    25 O4'         24.9070    -9.4610   -11.1380 O.3          1 FNR501   0.0000
    26 C5'         23.3980    -9.1660    -9.3080 C.3          1 FNR501   0.0000
    27 O5'         22.7460    -7.9250    -9.4650 O.3          1 FNR501   0.0000
    28 P           21.3540    -7.6170    -8.8800 P.3          1 FNR501   0.0000
    29 O1P         20.3840    -7.6640    -9.9690 O.co2        1 FNR501   0.0000
    30 O2P         21.5710    -6.3050    -8.2630 O.co2        1 FNR501  -1.0000
    31 O3P         20.9300    -8.6070    -7.8430 O.co2        1 FNR501  -1.0000
    32 H1          29.2363    -3.7161   -15.6303 H            1 FNR501   0.0000
    33 H2          31.1521    -2.7402    -8.9062 H            1 FNR501   0.0000
    34 H7M1        30.1382    -3.1980    -5.4577 H            1 FNR501   0.0000
    35 H7M2        31.5405    -3.2881    -6.2896 H            1 FNR501   0.0000
    36 H7M3        30.6260    -1.9379    -6.3746 H            1 FNR501   0.0000
    37 H8M1        27.3287    -5.1130    -5.9125 H            1 FNR501   0.0000
    38 H8M2        28.8634    -5.0922    -5.3547 H            1 FNR501   0.0000
    39 H8M3        27.9826    -3.7172    -5.3732 H            1 FNR501   0.0000
    40 H9          27.0799    -5.2173    -8.2052 H            1 FNR501   0.0000
    41 H1'1        25.8327    -5.3812   -11.5113 H            1 FNR501   0.0000
    42 H1'2        25.9021    -5.0547    -9.9128 H            1 FNR501   0.0000
    43 H2'         27.1511    -7.1708    -9.6696 H            1 FNR501   0.0000
    44 H13         27.7943    -7.8319   -11.5847 H            1 FNR501   0.0000
    45 H3'         24.4193    -6.9695   -10.3514 H            1 FNR501   0.0000
    46 H15         24.1597    -7.2576    -8.0920 H            1 FNR501   0.0000
    47 H4'         25.4728    -9.4239    -9.2282 H            1 FNR501   0.0000
    48 H17         25.5754    -8.9314   -11.6603 H            1 FNR501   0.0000
    49 H5'1        23.4102    -9.4350    -8.3449 H            1 FNR501   0.0000
    50 H5'2        22.9383    -9.8728    -9.8457 H            1 FNR501   0.0000
@<TRIPOS>BOND
     1    1    2       1
     2    1   12      ar
     3    1   18      ar
     4    2    3       1
     5    2   19       1
     6    3    4       2
     7    3   10       1
     8    4    5       1
     9    5    6       2
    10    5    7       1
    11    7    8       1
    12    8    9       2
    13    8   10       1
    14   10   11       2
    15   11   12       1
    16   12   13      ar
    17   13   14      ar
    18   14   15       1
    19   14   16      ar
    20   16   17       1
    21   16   18      ar
    22   19   20       1
    23   20   21       1
    24   20   22       1
    25   22   23       1
    26   22   24       1
    27   24   25       1
    28   24   26       1
    29   26   27       1
    30   27   28       1
    31   28   29      ar
    32   28   30      ar
    33   28   31      ar
    34    7   32       1
    35   13   33       1
    36   15   34       1
    37   15   35       1
    38   15   36       1
    39   17   37       1
    40   17   38       1
    41   17   39       1
    42   18   40       1
    43   19   41       1
    44   19   42       1
    45   20   43       1
    46   21   44       1
    47   22   45       1
    48   23   46       1
    49   24   47       1
    50   25   48       1
    51   26   49       1
    52   26   50       1
@<TRIPOS>SUBSTRUCTURE
     1 FNR501      1 GROUP             4 B     FNR     0 **** FNR B 501
