@<TRIPOS>MOLECULE
2q54_MU1_1_ligand
   92    95     1     0     0
SMALL
NO_CHARGES


@<TRIPOS>ATOM
     1 O1          21.9950     4.1030    19.0340 O.2          1 MU1200   0.0000
     2 C3          21.9140     3.3640    19.9990 C.2          1 MU1200   0.0000
     3 C2          21.6800     3.8920    21.3880 C.3          1 MU1200   0.0000
     4 N1          22.0460     2.0390    19.8830 N.am         1 MU1200   0.0000
     5 C10         22.3640     1.3790    18.6270 C.3          1 MU1200   0.0000
     6 C13         23.7410     0.7170    18.6880 C.3          1 MU1200   0.0000
     7 C14         24.0060    -0.0890    17.4180 C.3          1 MU1200   0.0000
     8 C15         24.8440     1.7510    18.9380 C.3          1 MU1200   0.0000
     9 C11         21.2890     0.3830    18.2760 C.2          1 MU1200   0.0000
    10 O2          21.2460    -0.7000    18.8380 O.2          1 MU1200   0.0000
    11 N3          20.4190     0.8130    17.3670 N.am         1 MU1200   0.0000
    12 C12         19.1950     0.1150    16.9830 C.3          1 MU1200   0.0000
    13 C22         17.9180     0.8490    17.4210 C.3          1 MU1200   0.0000
    14 C20         18.0050     1.3720    18.8350 C.ar         1 MU1200   0.0000
    15 C21         17.7930     0.5270    19.9120 C.ar         1 MU1200   0.0000
    16 C16         17.8820     1.0220    21.2130 C.ar         1 MU1200   0.0000
    17 C17         18.1760     2.3660    21.4320 C.ar         1 MU1200   0.0000
    18 C18         18.3760     3.2100    20.3510 C.ar         1 MU1200   0.0000
    19 C19         18.2880     2.7120    19.0560 C.ar         1 MU1200   0.0000
    20 C23         19.0840     0.0230    15.4800 C.3          1 MU1200   0.0000
    21 C24         20.3240    -0.4710    14.7690 C.3          1 MU1200   0.0000
    22 O4          20.1560    -0.1430    13.3740 O.3          1 MU1200   0.0000
    23 C25         20.5530    -1.9740    14.9720 C.3          1 MU1200   0.0000
    24 C29         21.8940    -2.3610    14.3460 C.3          1 MU1200   0.0000
    25 C4          22.1140    -3.8540    14.4610 C.ar         1 MU1200   0.0000
    26 C5          21.9940    -4.6770    13.3350 C.ar         1 MU1200   0.0000
    27 C6          22.1850    -6.0530    13.4490 C.ar         1 MU1200   0.0000
    28 C7          22.4970    -6.6080    14.6880 C.ar         1 MU1200   0.0000
    29 C8          22.6100    -5.7840    15.8060 C.ar         1 MU1200   0.0000
    30 C9          22.4180    -4.4100    15.6990 C.ar         1 MU1200   0.0000
    31 N4          19.4970    -2.8280    14.4180 N.am         1 MU1200   0.0000
    32 C26         18.8020    -3.7360    15.1240 C.2          1 MU1200   0.0000
    33 O5          18.8420    -3.8510    16.3450 O.2          1 MU1200   0.0000
    34 C27         17.9480    -4.7220    14.3540 C.3          1 MU1200   0.0000
    35 C32         18.4220    -6.1510    14.6110 C.3          1 MU1200   0.0000
    36 O28         18.0250    -4.5340    12.9350 O.3          1 MU1200   0.0000
    37 C30         18.3380    -5.8110    12.3450 C.2          1 MU1200   0.0000
    38 O30         18.3490    -5.9640    11.1580 O.2          1 MU1200   0.0000
    39 N31         18.5660    -6.7030    13.2790 N.am         1 MU1200   0.0000
    40 C33         18.9390    -8.0430    13.0270 C.ar         1 MU1200   0.0000
    41 C38         18.4250    -8.7490    11.9420 C.ar         1 MU1200   0.0000
    42 C37         18.8120   -10.0690    11.7190 C.ar         1 MU1200   0.0000
    43 C36         19.7060   -10.7120    12.5770 C.ar         1 MU1200   0.0000
    44 C34         19.8410    -8.6960    13.8800 C.ar         1 MU1200   0.0000
    45 C35         20.2320   -10.0250    13.6680 C.ar         1 MU1200   0.0000
    46 C39         21.2010   -10.6950    14.6150 C.2          1 MU1200   0.0000
    47 O39         21.5190   -10.1410    15.6630 O.2          1 MU1200   0.0000
    48 C40         21.7700   -12.0480    14.2840 C.3          1 MU1200   0.0000
    49 H1          21.6457     3.1289    22.0333 H            1 MU1200   0.0000
    50 H2          22.4258     4.5086    21.6403 H            1 MU1200   0.0000
    51 H3          20.8130     4.3896    21.4138 H            1 MU1200   0.0000
    52 H4          21.9201     1.4747    20.6989 H            1 MU1200   0.0000
    53 H5          22.3870     2.0749    17.9092 H            1 MU1200   0.0000
    54 H6          23.7395     0.0800    19.4589 H            1 MU1200   0.0000
    55 H7          24.9093    -0.5141    17.4754 H            1 MU1200   0.0000
    56 H8          23.3087    -0.7994    17.3225 H            1 MU1200   0.0000
    57 H9          23.9734     0.5188    16.6246 H            1 MU1200   0.0000
    58 H10         25.7309     1.2904    18.9729 H            1 MU1200   0.0000
    59 H11         24.8459     2.4222    18.1967 H            1 MU1200   0.0000
    60 H12         24.6750     2.2151    19.8075 H            1 MU1200   0.0000
    61 H13         20.6180     1.6807    16.9115 H            1 MU1200   0.0000
    62 H14         19.2003    -0.8056    17.3734 H            1 MU1200   0.0000
    63 H15         17.1473     0.2146    17.3610 H            1 MU1200   0.0000
    64 H16         17.7639     1.6201    16.8032 H            1 MU1200   0.0000
    65 H17         17.5764    -0.4369    19.7569 H            1 MU1200   0.0000
    66 H18         17.7344     0.4106    21.9904 H            1 MU1200   0.0000
    67 H19         18.2424     2.7201    22.3648 H            1 MU1200   0.0000
    68 H20         18.5834     4.1765    20.5024 H            1 MU1200   0.0000
    69 H21         18.4297     3.3242    18.2781 H            1 MU1200   0.0000
    70 H22         18.8697     0.9348    15.1297 H            1 MU1200   0.0000
    71 H23         18.3341    -0.6020    15.2634 H            1 MU1200   0.0000
    72 H24         21.1167     0.0256    15.1227 H            1 MU1200   0.0000
    73 H25         19.2781     0.3177    13.2433 H            1 MU1200   0.0000
    74 H26         20.6084    -2.1487    15.9551 H            1 MU1200   0.0000
    75 H27         22.6312    -1.8810    14.8216 H            1 MU1200   0.0000
    76 H28         21.8951    -2.1005    13.3805 H            1 MU1200   0.0000
    77 H29         21.7706    -4.2766    12.4463 H            1 MU1200   0.0000
    78 H30         22.0983    -6.6399    12.6440 H            1 MU1200   0.0000
    79 H31         22.6393    -7.5940    14.7748 H            1 MU1200   0.0000
    80 H32         22.8315    -6.1845    16.6951 H            1 MU1200   0.0000
    81 H33         22.4981    -3.8262    16.5069 H            1 MU1200   0.0000
    82 H34         19.2790    -2.7276    13.4472 H            1 MU1200   0.0000
    83 H35         16.9961    -4.6328    14.6471 H            1 MU1200   0.0000
    84 H36         17.7445    -6.6630    15.1390 H            1 MU1200   0.0000
    85 H37         19.2962    -6.1560    15.0966 H            1 MU1200   0.0000
    86 H38         17.7767    -8.3076    11.3216 H            1 MU1200   0.0000
    87 H39         18.4435   -10.5635    10.9318 H            1 MU1200   0.0000
    88 H40         19.9677   -11.6624    12.4087 H            1 MU1200   0.0000
    89 H41         20.2160    -8.1986    14.6623 H            1 MU1200   0.0000
    90 H42         22.3879   -12.3377    15.0150 H            1 MU1200   0.0000
    91 H43         21.0257   -12.7099    14.1948 H            1 MU1200   0.0000
    92 H44         22.2746   -11.9957    13.4222 H            1 MU1200   0.0000
@<TRIPOS>BOND
     1    1    2       2
     2    2    3       1
     3    2    4      am
     4    4    5       1
     5    5    6       1
     6    5    9       1
     7    6    7       1
     8    6    8       1
     9    9   10       2
    10    9   11      am
    11   11   12       1
    12   12   13       1
    13   12   20       1
    14   13   14       1
    15   14   15      ar
    16   14   19      ar
    17   15   16      ar
    18   16   17      ar
    19   17   18      ar
    20   18   19      ar
    21   20   21       1
    22   21   22       1
    23   21   23       1
    24   23   24       1
    25   23   31       1
    26   24   25       1
    27   25   26      ar
    28   25   30      ar
    29   26   27      ar
    30   27   28      ar
    31   28   29      ar
    32   29   30      ar
    33   31   32      am
    34   32   33       2
    35   32   34       1
    36   34   35       1
    37   34   36       1
    38   35   39       1
    39   36   37       1
    40   37   38       2
    41   37   39      am
    42   39   40       1
    43   40   41      ar
    44   40   44      ar
    45   41   42      ar
    46   42   43      ar
    47   43   45      ar
    48   44   45      ar
    49   45   46       1
    50   46   47       2
    51   46   48       1
    52    3   49       1
    53    3   50       1
    54    3   51       1
    55    4   52       1
    56    5   53       1
    57    6   54       1
    58    7   55       1
    59    7   56       1
    60    7   57       1
    61    8   58       1
    62    8   59       1
    63    8   60       1
    64   11   61       1
    65   12   62       1
    66   13   63       1
    67   13   64       1
    68   15   65       1
    69   16   66       1
    70   17   67       1
    71   18   68       1
    72   19   69       1
    73   20   70       1
    74   20   71       1
    75   21   72       1
    76   22   73       1
    77   23   74       1
    78   24   75       1
    79   24   76       1
    80   26   77       1
    81   27   78       1
    82   28   79       1
    83   29   80       1
    84   30   81       1
    85   31   82       1
    86   34   83       1
    87   35   84       1
    88   35   85       1
    89   41   86       1
    90   42   87       1
    91   43   88       1
    92   44   89       1
    93   48   90       1
    94   48   91       1
    95   48   92       1
@<TRIPOS>SUBSTRUCTURE
     1 MU1200      1 GROUP             4 B     MU1     0 **** MU1 B 200
