@<TRIPOS>MOLECULE
1o68_KIV_3_ligand
   15    14     1     0     0
SMALL
NO_CHARGES


@<TRIPOS>ATOM
     1 O1          49.5310    86.2260    60.8560 O.co2        1 KIV275   0.0000
     2 C1          49.6500    86.9510    61.8350 C.2          1 KIV275   0.0000
     3 O2          50.7740    87.4180    62.1130 O.co2        1 KIV275  -1.0000
     4 C2          48.4400    87.2520    62.7070 C.2          1 KIV275   0.0000
     5 C3          48.4510    88.1820    63.9750 C.3          1 KIV275   0.0000
     6 C4          48.6590    89.6970    63.6860 C.3          1 KIV275   0.0000
     7 C5          47.1420    87.8630    64.7080 C.3          1 KIV275   0.0000
     8 O3          47.4580    86.7130    62.2880 O.2          1 KIV275   0.0000
     9 H1          49.2039    87.8820    64.5608 H            1 KIV275   0.0000
    10 H2          48.6514    90.2048    64.5474 H            1 KIV275   0.0000
    11 H3          49.5376    89.8314    63.2276 H            1 KIV275   0.0000
    12 H4          47.9217    90.0283    63.0972 H            1 KIV275   0.0000
    13 H5          47.0778    88.4225    65.5343 H            1 KIV275   0.0000
    14 H6          46.3670    88.0634    64.1087 H            1 KIV275   0.0000
    15 H7          47.1278    86.8951    64.9589 H            1 KIV275   0.0000
@<TRIPOS>BOND
     1    1    2      ar
     2    2    3      ar
     3    2    4       1
     4    4    5       1
     5    4    8       2
     6    5    6       1
     7    5    7       1
     8    7   15       1
     9    5    9       1
    10    6   10       1
    11    6   11       1
    12    6   12       1
    13    7   13       1
    14    7   14       1
@<TRIPOS>SUBSTRUCTURE
     1 KIV275      1 GROUP             4 D     KIV     0 **** KIV D 275
