@<TRIPOS>MOLECULE
3lps_NOV_1_ligand
   80    83     1     0     0
SMALL
NO_CHARGES


@<TRIPOS>ATOM
     1 C1          -9.6510    32.2660    59.4280 C.3          1 NOV901   0.0000
     2 O1          -9.1010    31.0970    60.0000 O.3          1 NOV901   0.0000
     3 N1          -9.5110    29.0530    55.5480 N.am         1 NOV901   0.0000
     4 C12         -8.8720    28.7740    56.7020 C.2          1 NOV901   0.0000
     5 O4          -8.5920    27.6200    56.9790 O.2          1 NOV901   0.0000
     6 O5          -8.6160    29.8140    57.5920 O.3          1 NOV901   0.0000
     7 C27         -7.7360    30.8470    59.5710 C.3          1 NOV901   0.0000
     8 C28         -7.7240    29.5650    58.7160 C.3          1 NOV901   0.0000
     9 C29         -6.2250    29.2990    58.2860 C.3          1 NOV901   0.0000
    10 O6          -5.6750    30.4230    57.6120 O.3          1 NOV901   0.0000
    11 C30         -5.4200    29.0160    59.5740 C.3          1 NOV901   0.0000
    12 O7          -5.4760    30.1050    60.5310 O.3          1 NOV901   0.0000
    13 C31         -6.7790    30.6870    60.8310 C.3          1 NOV901   0.0000
    14 C23         -7.4740    29.8750    61.9520 C.3          1 NOV901   0.0000
    15 C26         -6.4730    32.0700    61.4160 C.3          1 NOV901   0.0000
    16 O8          -5.9670    27.8560    60.1780 O.3          1 NOV901   0.0000
    17 C3          -5.2880    27.1270    61.1740 C.ar         1 NOV901   0.0000
    18 C4          -5.8430    25.8470    61.4890 C.ar         1 NOV901   0.0000
    19 C2          -7.0890    25.3800    60.7420 C.3          1 NOV901   0.0000
    20 C5          -5.2280    25.0370    62.4890 C.ar         1 NOV901   0.0000
    21 C9          -4.0390    25.5140    63.1870 C.ar         1 NOV901   0.0000
    22 C10         -3.4940    26.7920    62.8600 C.ar         1 NOV901   0.0000
    23 C11         -4.1080    27.5860    61.8710 C.ar         1 NOV901   0.0000
    24 O10         -5.7830    23.8360    62.7640 O.2          1 NOV901   0.0000
    25 C6          -5.2430    23.0370    63.6970 C.2          1 NOV901   0.0000
    26 O11         -5.7850    21.9680    63.9070 O.2          1 NOV901   0.0000
    27 C7          -4.0800    23.3990    64.4470 C.2          1 NOV901   0.0000
    28 C8          -3.4680    24.6580    64.1770 C.2          1 NOV901   0.0000
    29 O9          -2.3240    25.0170    64.9150 O.3          1 NOV901   0.0000
    30 N2          -3.5370    22.5090    65.4440 N.am         1 NOV901   0.0000
    31 C13         -3.9110    22.4140    66.7640 C.2          1 NOV901   0.0000
    32 O2          -3.3430    21.5840    67.4490 O.2          1 NOV901   0.0000
    33 C14         -4.9640    23.2560    67.4080 C.ar         1 NOV901   0.0000
    34 C15         -4.7230    24.6410    67.6460 C.ar         1 NOV901   0.0000
    35 C16         -5.7040    25.4550    68.2640 C.ar         1 NOV901   0.0000
    36 C17         -6.9600    24.8870    68.6540 C.ar         1 NOV901   0.0000
    37 O3          -7.9180    25.7000    69.2640 O.3          1 NOV901   0.0000
    38 C18         -7.2120    23.5010    68.4190 C.ar         1 NOV901   0.0000
    39 C19         -6.2200    22.6880    67.7960 C.ar         1 NOV901   0.0000
    40 C20         -5.4020    26.9070    68.4990 C.3          1 NOV901   0.0000
    41 C21         -5.9800    27.7230    67.3740 C.2          1 NOV901   0.0000
    42 C22         -5.2540    28.4240    66.4700 C.2          1 NOV901   0.0000
    43 C24         -5.9610    29.1940    65.3980 C.3          1 NOV901   0.0000
    44 C25         -3.7450    28.4720    66.4850 C.3          1 NOV901   0.0000
    45 H1         -10.5876    32.3889    59.7563 H            1 NOV901   0.0000
    46 H2          -9.0991    33.0573    59.6911 H            1 NOV901   0.0000
    47 H3          -9.6557    32.1792    58.4318 H            1 NOV901   0.0000
    48 H4          -9.7411    29.9991    55.3199 H            1 NOV901   0.0000
    49 H5          -9.7549    28.3139    54.9202 H            1 NOV901   0.0000
    50 H6          -7.4206    31.6158    59.0146 H            1 NOV901   0.0000
    51 H7          -8.0642    28.7945    59.2550 H            1 NOV901   0.0000
    52 H8          -6.1870    28.4994    57.6866 H            1 NOV901   0.0000
    53 H9          -5.8441    30.3384    56.6300 H            1 NOV901   0.0000
    54 H10         -4.4656    28.8407    59.3323 H            1 NOV901   0.0000
    55 H11         -6.8552    29.7871    62.7326 H            1 NOV901   0.0000
    56 H12         -8.3071    30.3480    62.2387 H            1 NOV901   0.0000
    57 H13         -7.7085    28.9656    61.6085 H            1 NOV901   0.0000
    58 H14         -5.8712    31.9710    62.2085 H            1 NOV901   0.0000
    59 H15         -6.0219    32.6326    60.7232 H            1 NOV901   0.0000
    60 H16         -7.3262    32.5088    61.6980 H            1 NOV901   0.0000
    61 H17         -7.3544    24.4735    61.0705 H            1 NOV901   0.0000
    62 H18         -7.8359    26.0250    60.9036 H            1 NOV901   0.0000
    63 H19         -6.8932    25.3354    59.7624 H            1 NOV901   0.0000
    64 H20         -2.6773    27.1236    63.3323 H            1 NOV901   0.0000
    65 H21         -3.7213    28.4808    61.6479 H            1 NOV901   0.0000
    66 H22         -2.8088    21.8937    65.1422 H            1 NOV901   0.0000
    67 H23         -3.8492    25.0434    67.3729 H            1 NOV901   0.0000
    68 H24         -8.7983    25.3143    69.5404 H            1 NOV901   0.0000
    69 H25         -8.0863    23.0997    68.6920 H            1 NOV901   0.0000
    70 H26         -6.4018    21.7188    67.6296 H            1 NOV901   0.0000
    71 H27         -4.4116    27.0409    68.5343 H            1 NOV901   0.0000
    72 H28         -5.8087    27.1969    69.3653 H            1 NOV901   0.0000
    73 H29         -6.9759    27.7498    67.2872 H            1 NOV901   0.0000
    74 H30         -5.2878    29.6522    64.8176 H            1 NOV901   0.0000
    75 H31         -6.5081    28.5673    64.8431 H            1 NOV901   0.0000
    76 H32         -6.5593    29.8768    65.8174 H            1 NOV901   0.0000
    77 H33         -3.4222    29.0451    65.7317 H            1 NOV901   0.0000
    78 H34         -3.4323    28.8561    67.3537 H            1 NOV901   0.0000
    79 H35         -3.3810    27.5466    66.3795 H            1 NOV901   0.0000
    80 H36         -1.9538    24.3897    65.6002 H            1 NOV901   0.0000
@<TRIPOS>BOND
     1    1    2       1
     2    2    7       1
     3    3    4      am
     4    4    5       2
     5    4    6       1
     6    6    8       1
     7    7    8       1
     8    7   13       1
     9    8    9       1
    10    9   10       1
    11    9   11       1
    12   11   12       1
    13   11   16       1
    14   12   13       1
    15   13   14       1
    16   13   15       1
    17   16   17       1
    18   17   18      ar
    19   17   23      ar
    20   18   19       1
    21   18   20      ar
    22   20   21      ar
    23   20   24       1
    24   21   22      ar
    25   21   28       1
    26   22   23      ar
    27   24   25       1
    28   25   26       2
    29   25   27       1
    30   27   28       2
    31   27   30       1
    32   28   29       1
    33   30   31      am
    34   31   32       2
    35   31   33       1
    36   33   34      ar
    37   33   39      ar
    38   34   35      ar
    39   35   36      ar
    40   35   40       1
    41   36   37       1
    42   36   38      ar
    43   38   39      ar
    44   40   41       1
    45   41   42       2
    46   42   43       1
    47   42   44       1
    48    1   45       1
    49    1   46       1
    50    1   47       1
    51    3   48       1
    52    3   49       1
    53    7   50       1
    54    8   51       1
    55    9   52       1
    56   10   53       1
    57   11   54       1
    58   14   55       1
    59   14   56       1
    60   14   57       1
    61   15   58       1
    62   15   59       1
    63   15   60       1
    64   19   61       1
    65   19   62       1
    66   19   63       1
    67   22   64       1
    68   23   65       1
    69   44   79       1
    70   30   66       1
    71   34   67       1
    72   37   68       1
    73   38   69       1
    74   39   70       1
    75   40   71       1
    76   40   72       1
    77   41   73       1
    78   43   74       1
    79   43   75       1
    80   43   76       1
    81   44   77       1
    82   44   78       1
    83   29   80       1
@<TRIPOS>SUBSTRUCTURE
     1 NOV901      1 GROUP             4 A     NOV     0 **** NOV A 901
