@<TRIPOS>MOLECULE
4x4l_NAI_1_ligand
   71    75     1     0     0
SMALL
NO_CHARGES


@<TRIPOS>ATOM
     1 PA         -14.4190    44.8780     9.8990 P.3          1 NAI608   0.0000
     2 O1A        -13.1360    45.1100    10.6460 O.co2        1 NAI608   0.0000
     3 O2A        -14.3330    45.3480     8.4920 O.co2        1 NAI608  -1.0000
     4 O5B        -15.6510    45.7150    10.5400 O.3          1 NAI608   0.0000
     5 C5B        -15.6730    46.1780    11.8950 C.3          1 NAI608   0.0000
     6 C4B        -15.9620    47.6770    11.8990 C.3          1 NAI608   0.0000
     7 O4B        -15.0280    48.3260    11.0340 O.3          1 NAI608   0.0000
     8 C3B        -17.3530    48.0470    11.3770 C.3          1 NAI608   0.0000
     9 O3B        -17.8900    49.1350    12.1720 O.3          1 NAI608   0.0000
    10 C2B        -17.0850    48.4690     9.9470 C.3          1 NAI608   0.0000
    11 O2B        -18.0490    49.3460     9.3710 O.3          1 NAI608   0.0000
    12 C1B        -15.7410    49.1610    10.1170 C.3          1 NAI608   0.0000
    13 N9A        -14.9910    49.3670     8.8700 N.pl3        1 NAI608   0.0000
    14 C8A        -14.9940    48.5700     7.7620 C.2          1 NAI608   0.0000
    15 N7A        -14.1930    49.0940     6.8020 N.2          1 NAI608   0.0000
    16 C5A        -13.6520    50.2200     7.2970 C.ar         1 NAI608   0.0000
    17 C6A        -12.7140    51.2470     6.8170 C.ar         1 NAI608   0.0000
    18 N6A        -12.1880    51.1600     5.5780 N.pl3        1 NAI608   0.0000
    19 N1A        -12.3910    52.2760     7.6510 N.ar         1 NAI608   0.0000
    20 C2A        -12.9220    52.3750     8.8840 C.ar         1 NAI608   0.0000
    21 N3A        -13.7920    51.4780     9.3830 N.ar         1 NAI608   0.0000
    22 C4A        -14.1890    50.4010     8.6560 C.ar         1 NAI608   0.0000
    23 O3         -14.9050    43.3690    10.1170 O.3          1 NAI608   0.0000
    24 PN         -15.7600    42.4800     9.0680 P.3          1 NAI608   0.0000
    25 O1N        -15.3280    42.7960     7.6460 O.co2        1 NAI608   0.0000
    26 O2N        -17.2080    42.5940     9.5010 O.co2        1 NAI608  -1.0000
    27 O5D        -15.2400    41.0090     9.4870 O.3          1 NAI608   0.0000
    28 C5D        -14.0600    40.4740     8.8870 C.3          1 NAI608   0.0000
    29 C4D        -13.2050    39.7070     9.8990 C.3          1 NAI608   0.0000
    30 O4D        -12.6360    40.5760    10.8850 O.3          1 NAI608   0.0000
    31 C3D        -13.9580    38.6440    10.6730 C.3          1 NAI608   0.0000
    32 O3D        -14.0910    37.4320     9.9260 O.3          1 NAI608   0.0000
    33 C2D        -13.0960    38.5040    11.9190 C.3          1 NAI608   0.0000
    34 O2D        -12.0370    37.5670    11.7040 O.3          1 NAI608   0.0000
    35 C1D        -12.5400    39.9140    12.1470 C.3          1 NAI608   0.0000
    36 N1N        -13.3290    40.5900    13.1900 N.pl3        1 NAI608   0.0000
    37 C2N        -12.8310    40.6950    14.4410 C.2          1 NAI608   0.0000
    38 C3N        -13.5730    41.3150    15.4490 C.2          1 NAI608   0.0000
    39 C7N        -13.0190    41.4470    16.8440 C.2          1 NAI608   0.0000
    40 O7N        -13.7300    41.1980    17.8090 O.2          1 NAI608   0.0000
    41 N7N        -11.7530    41.8270    16.9850 N.am         1 NAI608   0.0000
    42 C4N        -14.8390    41.8140    15.1620 C.3          1 NAI608   0.0000
    43 C5N        -15.3450    41.6900    13.8710 C.2          1 NAI608   0.0000
    44 C6N        -14.5630    41.0680    12.8980 C.2          1 NAI608   0.0000
    45 H5B1       -14.7859    46.0057    12.3233 H            1 NAI608   0.0000
    46 H5B2       -16.3875    45.6968    12.4029 H            1 NAI608   0.0000
    47 H4B        -15.8530    48.0315    12.8277 H            1 NAI608   0.0000
    48 H3B        -17.9629    47.2550    11.4036 H            1 NAI608   0.0000
    49 H5         -17.9566    48.8482    13.1277 H            1 NAI608   0.0000
    50 H2B        -16.9776    47.6592     9.3702 H            1 NAI608   0.0000
    51 H7         -18.7645    48.8082     8.9252 H            1 NAI608   0.0000
    52 H1B        -15.8929    50.0505    10.5480 H            1 NAI608   0.0000
    53 H8A        -15.5133    47.7202     7.6712 H            1 NAI608   0.0000
    54 H6A1       -11.5508    51.8598     5.2550 H            1 NAI608   0.0000
    55 H6A2       -12.4352    50.3957     4.9824 H            1 NAI608   0.0000
    56 H2A        -12.6575    53.1515     9.4559 H            1 NAI608   0.0000
    57 H5D1       -13.5190    41.2259     8.5103 H            1 NAI608   0.0000
    58 H5D2       -14.3250    39.8522     8.1501 H            1 NAI608   0.0000
    59 H4D        -12.4576    39.2633     9.4044 H            1 NAI608   0.0000
    60 H3D        -14.8630    38.9868    10.9249 H            1 NAI608   0.0000
    61 H17        -14.1215    37.6441     8.9492 H            1 NAI608   0.0000
    62 H2D        -13.6558    38.2218    12.6981 H            1 NAI608   0.0000
    63 H19        -11.4850    37.4916    12.5344 H            1 NAI608   0.0000
    64 H1D        -11.5821    39.8591    12.4289 H            1 NAI608   0.0000
    65 H2N        -11.9246    40.3262    14.6471 H            1 NAI608   0.0000
    66 H7N1       -11.3586    41.9230    17.8989 H            1 NAI608   0.0000
    67 H7N2       -11.1950    42.0169    16.1772 H            1 NAI608   0.0000
    68 H4N1       -14.8228    42.7907    15.3761 H            1 NAI608   0.0000
    69 H4N2       -15.4806    41.3495    15.7724 H            1 NAI608   0.0000
    70 H5N        -16.2537    42.0410    13.6451 H            1 NAI608   0.0000
    71 H6N        -14.9192    40.9731    11.9684 H            1 NAI608   0.0000
@<TRIPOS>BOND
     1    1    2      ar
     2    1    3      ar
     3    1    4       1
     4    1   23       1
     5    4    5       1
     6    5    6       1
     7    6    7       1
     8    6    8       1
     9    7   12       1
    10    8    9       1
    11    8   10       1
    12   10   11       1
    13   10   12       1
    14   12   13       1
    15   13   14       1
    16   13   22       1
    17   14   15       2
    18   15   16       1
    19   16   17      ar
    20   16   22      ar
    21   17   18       1
    22   17   19      ar
    23   19   20      ar
    24   20   21      ar
    25   21   22      ar
    26   23   24       1
    27   24   25      ar
    28   24   26      ar
    29   24   27       1
    30   27   28       1
    31   28   29       1
    32   29   30       1
    33   29   31       1
    34   30   35       1
    35   31   32       1
    36   31   33       1
    37   33   34       1
    38   33   35       1
    39   35   36       1
    40   36   37       1
    41   36   44       1
    42   37   38       2
    43   38   39       1
    44   38   42       1
    45   39   40       2
    46   39   41      am
    47   42   43       1
    48   43   44       2
    49   44   71       1
    50    5   45       1
    51    5   46       1
    52    6   47       1
    53    8   48       1
    54    9   49       1
    55   10   50       1
    56   11   51       1
    57   12   52       1
    58   14   53       1
    59   18   54       1
    60   18   55       1
    61   20   56       1
    62   43   70       1
    63   28   57       1
    64   28   58       1
    65   29   59       1
    66   31   60       1
    67   32   61       1
    68   33   62       1
    69   34   63       1
    70   35   64       1
    71   37   65       1
    72   41   66       1
    73   41   67       1
    74   42   68       1
    75   42   69       1
@<TRIPOS>SUBSTRUCTURE
     1 NAI608      1 GROUP             4 A     NAI     0 **** NAI A 608
