@<TRIPOS>MOLECULE
4h2u_ATP_1_ligand
   43    45     1     0     0
SMALL
NO_CHARGES


@<TRIPOS>ATOM
     1 PG          92.4930    46.0030    20.5070 P.3          1 ATP402   0.0000
     2 O1G         93.6720    46.1830    19.4960 O.co2        1 ATP402   0.0000
     3 O2G         91.8210    47.3020    20.9620 O.co2        1 ATP402  -1.0000
     4 O3G         92.8750    45.1510    21.7440 O.co2        1 ATP402  -1.0000
     5 PB          90.3570    44.0560    19.2950 P.3          1 ATP402   0.0000
     6 O1B         90.1460    44.1650    17.8310 O.co2        1 ATP402   0.0000
     7 O2B         91.0980    42.9430    20.0510 O.co2        1 ATP402  -1.0000
     8 O3B         91.2590    45.1970    19.8880 O.3          1 ATP402   0.0000
     9 PA          87.5680    43.1670    18.9520 P.3          1 ATP402   0.0000
    10 O1A         88.1210    41.8020    18.9690 O.co2        1 ATP402   0.0000
    11 O2A         87.1830    43.8710    17.6440 O.co2        1 ATP402  -1.0000
    12 O3A         88.7950    43.9290    19.6800 O.3          1 ATP402   0.0000
    13 O5'         86.2500    43.3330    19.9270 O.3          1 ATP402   0.0000
    14 C5'         85.1790    44.2680    19.7220 C.3          1 ATP402   0.0000
    15 C4'         85.2630    45.4480    20.6640 C.3          1 ATP402   0.0000
    16 O4'         85.4350    45.0110    22.0280 O.3          1 ATP402   0.0000
    17 C3'         86.4210    46.3970    20.4280 C.3          1 ATP402   0.0000
    18 O3'         86.0810    47.3070    19.3870 O.3          1 ATP402   0.0000
    19 C2'         86.5290    47.1120    21.7710 C.3          1 ATP402   0.0000
    20 O2'         85.6390    48.2190    21.7820 O.3          1 ATP402   0.0000
    21 C1'         86.0940    46.0260    22.7710 C.3          1 ATP402   0.0000
    22 N9          87.2170    45.4200    23.4770 N.pl3        1 ATP402   0.0000
    23 C8          88.0950    44.5070    22.9560 C.2          1 ATP402   0.0000
    24 N7          89.1010    44.2230    23.7470 N.2          1 ATP402   0.0000
    25 C5          88.8540    44.9840    24.8780 C.ar         1 ATP402   0.0000
    26 C6          89.5270    45.0920    26.1090 C.ar         1 ATP402   0.0000
    27 N6          90.5850    44.3370    26.4390 N.pl3        1 ATP402   0.0000
    28 N1          89.0070    45.9270    27.0370 N.ar         1 ATP402   0.0000
    29 C2          87.8670    46.5690    26.7600 C.ar         1 ATP402   0.0000
    30 N3          87.1290    46.5220    25.6470 N.ar         1 ATP402   0.0000
    31 C4          87.6890    45.7180    24.7320 C.ar         1 ATP402   0.0000
    32 H5'1        84.3087    43.7985    19.8707 H            1 ATP402   0.0000
    33 H5'2        85.2202    44.6036    18.7809 H            1 ATP402   0.0000
    34 H4'         84.4099    45.9659    20.6014 H            1 ATP402   0.0000
    35 H3'         87.2609    45.8983    20.2139 H            1 ATP402   0.0000
    36 H5          86.7328    47.2114    18.6346 H            1 ATP402   0.0000
    37 H2'         87.4687    47.4055    21.9465 H            1 ATP402   0.0000
    38 H7          86.1113    49.0299    21.4364 H            1 ATP402   0.0000
    39 H1'         85.4573    46.4198    23.4340 H            1 ATP402   0.0000
    40 H9          87.9790    44.0939    22.0527 H            1 ATP402   0.0000
    41 H10         91.0259    44.4557    27.3287 H            1 ATP402   0.0000
    42 H11         90.9330    43.6553    25.7954 H            1 ATP402   0.0000
    43 H12         87.5198    47.1651    27.4840 H            1 ATP402   0.0000
@<TRIPOS>BOND
     1    1    2      ar
     2    1    3      ar
     3    1    4      ar
     4    1    8       1
     5    5    6      ar
     6    5    7      ar
     7    5    8       1
     8    5   12       1
     9    9   10      ar
    10    9   11      ar
    11    9   12       1
    12    9   13       1
    13   13   14       1
    14   14   15       1
    15   15   16       1
    16   15   17       1
    17   16   21       1
    18   17   18       1
    19   17   19       1
    20   19   20       1
    21   19   21       1
    22   21   22       1
    23   22   23       1
    24   22   31       1
    25   23   24       2
    26   24   25       1
    27   25   26      ar
    28   25   31      ar
    29   26   27       1
    30   26   28      ar
    31   28   29      ar
    32   29   30      ar
    33   30   31      ar
    34   29   43       1
    35   27   42       1
    36   27   41       1
    37   23   40       1
    38   14   32       1
    39   14   33       1
    40   15   34       1
    41   17   35       1
    42   18   36       1
    43   19   37       1
    44   20   38       1
    45   21   39       1
@<TRIPOS>SUBSTRUCTURE
     1 ATP402      1 GROUP             4 A     ATP     0 **** ATP A 402
