@<TRIPOS>MOLECULE
./coach420/1lby/ligand.pdb
 35 31 0 0 0
SMALL
GASTEIGER

@<TRIPOS>ATOM
      1  O1        -2.8560   40.6350    0.4700 O.3   295  F6P295     -0.2148
      2  C1        -3.0400   39.5950   -0.4910 C.3   295  F6P295      0.2434
      3  C2        -2.8050   38.2260    0.0560 C.3   295  F6P295      0.2807
      4  O2        -1.8480   38.3880    1.0330 O.3   295  F6P295     -0.1896
      5  C3        -2.3410   37.0650   -0.8590 C.3   295  F6P295      0.2409
      6  O3        -0.9400   36.8940   -0.7840 O.3   295  F6P295     -0.2149
      7  C4        -3.0740   35.8960   -0.2920 C.3   295  F6P295      0.2167
      8  O4        -2.8630   34.9200   -1.2680 O.3   295  F6P295     -0.2175
      9  C5        -4.3860   36.6380   -0.0960 C.3   295  F6P295      0.1808
     10  O5        -3.9460   37.7670    0.6780 O.3   295  F6P295     -0.3254
     11  C6        -5.4510   35.8240    0.6000 C.3   295  F6P295      0.1859
     12  O6        -6.6490   36.6050    0.7100 O.3   295  F6P295     -0.2675
     13  P         -6.6050   37.9580    1.4970 P.3   295  F6P295      0.5327
     14  O1P       -6.0080   38.9750    0.4810 O.2   295  F6P295     -0.2224
     15  O2P       -5.5660   37.7040    2.6260 O.3   295  F6P295     -0.1145
     16  O3P       -7.9340   38.3950    2.0400 O.3   295  F6P295     -0.1145
     17  O1         0.2870   40.3830    1.5760 O.3   293  PO4293      0.0000
     18  O2         1.1320   40.7120    3.8900 O.3   293  PO4293      0.0000
     19  O3        -1.1450   39.9400    3.4910 O.3   293  PO4293      0.0000
     20  O4         0.7490   38.4650    3.0150 O.3   293  PO4293      0.0000
     21  C1        -2.9740   12.3860   -0.6580 C.3   595  F6P595      0.0671
     22  C2        -2.4790   13.7920   -0.6250 C.3   595  F6P595      0.2500
     23  O2        -1.1930   13.7810   -1.1160 O.3   595  F6P595     -0.1924
     24  C3        -2.4840   14.5700    0.7110 C.3   595  F6P595      0.2382
     25  O3        -1.1660   14.8050    1.1770 O.3   595  F6P595     -0.2150
     26  C4        -3.2580   15.8040    0.4270 C.3   595  F6P595      0.2166
     27  O4        -3.7760   16.1500    1.6790 O.3   595  F6P595     -0.2175
     28  C5        -4.1600   15.2440   -0.6590 C.3   595  F6P595      0.1807
     29  O5        -3.2210   14.5600   -1.5010 O.3   595  F6P595     -0.3273
     30  C6        -4.9310   16.3250   -1.3880 C.3   595  F6P595      0.1859
     31  O6        -6.0020   15.6980   -2.0970 O.3   595  F6P595     -0.2675
     32  P         -6.3650   16.2480   -3.5220 P.3   595  F6P595      0.5327
     33  O1P       -6.6400   17.7500   -3.2580 O.3   595  F6P595     -0.1145
     34  O2P       -7.6960   15.5230   -3.8560 O.3   595  F6P595     -0.1145
     35  O3P       -5.2980   16.0000   -4.5400 O.2   595  F6P595     -0.2224
@<TRIPOS>BOND
     1     1     2    1
     2     2     3    1
     3     3     5    1
     4     3    10    1
     5     3     4    1
     6     5     6    1
     7     5     7    1
     8     7     8    1
     9     7     9    1
    10     9    11    1
    11     9    10    1
    12    11    12    1
    13    12    13    1
    14    13    14    2
    15    13    16    1
    16    13    15    1
    17    21    22    1
    18    22    29    1
    19    22    23    1
    20    22    24    1
    21    24    26    1
    22    24    25    1
    23    26    28    1
    24    26    27    1
    25    28    29    1
    26    28    30    1
    27    30    31    1
    28    31    32    1
    29    32    35    2
    30    32    34    1
    31    32    33    1
