@<TRIPOS>MOLECULE
3wix_LC3_4_ligand
   55    59     1     0     0
SMALL
NO_CHARGES


@<TRIPOS>ATOM
     1 C1         -25.9350    14.4890    -7.4420 C.ar         1 LC3501   0.0000
     2 C2         -25.3840    14.0350    -6.2660 C.ar         1 LC3501   0.0000
     3 C3         -26.1590    15.8440    -7.5920 C.ar         1 LC3501   0.0000
     4 C4         -26.2750    13.5140    -8.5120 C.2          1 LC3501   0.0000
     5 C5         -25.0790    14.9150    -5.2500 C.ar         1 LC3501   0.0000
     6 C6         -25.8480    16.7270    -6.5740 C.ar         1 LC3501   0.0000
     7 O7         -26.1880    12.2840    -8.2010 O.co2        1 LC3501   0.0000
     8 O8         -26.6380    13.9800    -9.6310 O.co2        1 LC3501  -1.0000
     9 C9         -25.3100    16.2660    -5.3940 C.ar         1 LC3501   0.0000
    10 C10        -25.5050    18.1060    -2.1630 C.2          1 LC3501   0.0000
    11 C11        -25.7540    17.1500    -3.1990 C.2          1 LC3501   0.0000
    12 C12        -25.0250    17.2160    -4.3170 C.2          1 LC3501   0.0000
    13 N13        -24.0600    18.1940    -4.4470 N.pl3        1 LC3501   0.0000
    14 C14        -23.7980    19.1330    -3.4770 C.2          1 LC3501   0.0000
    15 C15        -24.5700    19.0530    -2.3000 C.2          1 LC3501   0.0000
    16 N16        -23.2580    18.3720    -5.5070 N.2          1 LC3501   0.0000
    17 C17        -22.4900    19.4280    -5.1950 C.2          1 LC3501   0.0000
    18 C18        -22.7790    19.9610    -3.9190 C.2          1 LC3501   0.0000
    19 C19        -21.4130    19.9610    -6.1460 C.2          1 LC3501   0.0000
    20 C20        -22.1360    21.1280    -3.2550 C.3          1 LC3501   0.0000
    21 C21        -20.8600    20.7930    -2.5040 C.3          1 LC3501   0.0000
    22 C22        -21.1820    19.9680    -1.2850 C.3          1 LC3501   0.0000
    23 O23        -21.9880    20.7280    -0.3810 O.3          1 LC3501   0.0000
    24 O24        -21.5900    19.6770    -7.3550 O.co2        1 LC3501   0.0000
    25 O25        -20.4370    20.5730    -5.6350 O.co2        1 LC3501  -1.0000
    26 C26        -22.2660    20.0180     0.7820 C.ar         1 LC3501   0.0000
    27 C27        -21.7960    18.7410     1.0460 C.ar         1 LC3501   0.0000
    28 C28        -22.1100    18.0960     2.2290 C.ar         1 LC3501   0.0000
    29 C29        -22.9070    18.7440     3.1540 C.ar         1 LC3501   0.0000
    30 C30        -23.3690    20.0220     2.8970 C.ar         1 LC3501   0.0000
    31 C31        -23.0560    20.6610     1.7120 C.ar         1 LC3501   0.0000
    32 C32        -24.1600    20.6670     3.8240 C.ar         1 LC3501   0.0000
    33 C33        -24.6290    21.9360     3.5530 C.ar         1 LC3501   0.0000
    34 C34        -24.3090    22.5820     2.3710 C.ar         1 LC3501   0.0000
    35 C35        -23.5210    21.9390     1.4510 C.ar         1 LC3501   0.0000
    36 H1         -25.2033    13.0586    -6.1474 H            1 LC3501   0.0000
    37 H2         -26.5499    16.1897    -8.4451 H            1 LC3501   0.0000
    38 H3         -24.6854    14.5691    -4.3983 H            1 LC3501   0.0000
    39 H4         -26.0149    17.7054    -6.6959 H            1 LC3501   0.0000
    40 H5         -26.0409    18.0651    -1.3197 H            1 LC3501   0.0000
    41 H6         -26.4579    16.4483    -3.0885 H            1 LC3501   0.0000
    42 H7         -24.4174    19.7096    -1.5614 H            1 LC3501   0.0000
    43 H8         -22.7888    21.5179    -2.6055 H            1 LC3501   0.0000
    44 H9         -21.9179    21.8066    -3.9563 H            1 LC3501   0.0000
    45 H10        -20.4098    21.6400    -2.2213 H            1 LC3501   0.0000
    46 H11        -20.2494    20.2748    -3.1029 H            1 LC3501   0.0000
    47 H12        -20.3318    19.7041    -0.8294 H            1 LC3501   0.0000
    48 H13        -21.6801    19.1466    -1.5628 H            1 LC3501   0.0000
    49 H14        -21.2210    18.2788     0.3709 H            1 LC3501   0.0000
    50 H15        -21.7657    17.1752     2.4121 H            1 LC3501   0.0000
    51 H16        -23.1499    18.2881     4.0102 H            1 LC3501   0.0000
    52 H17        -24.3922    20.2181     4.6869 H            1 LC3501   0.0000
    53 H18        -25.2108    22.3976     4.2227 H            1 LC3501   0.0000
    54 H19        -24.6480    23.5053     2.1905 H            1 LC3501   0.0000
    55 H20        -23.2824    22.3927     0.5924 H            1 LC3501   0.0000
@<TRIPOS>BOND
     1    1    2      ar
     2    1    3      ar
     3    1    4       1
     4    2    5      ar
     5    3    6      ar
     6    4    7      ar
     7    4    8      ar
     8    5    9      ar
     9    6    9      ar
    10    9   12       1
    11   10   11       1
    12   10   15       2
    13   11   12       2
    14   12   13       1
    15   13   14       1
    16   13   16       1
    17   14   15       1
    18   14   18       2
    19   16   17       2
    20   17   18       1
    21   17   19       1
    22   18   20       1
    23   19   24      ar
    24   19   25      ar
    25   20   21       1
    26   21   22       1
    27   22   23       1
    28   23   26       1
    29   26   27      ar
    30   26   31      ar
    31   27   28      ar
    32   28   29      ar
    33   29   30      ar
    34   30   31      ar
    35   30   32      ar
    36   31   35      ar
    37   32   33      ar
    38   33   34      ar
    39   34   35      ar
    40    2   36       1
    41    3   37       1
    42    5   38       1
    43    6   39       1
    44   35   55       1
    45   10   40       1
    46   11   41       1
    47   15   42       1
    48   20   43       1
    49   20   44       1
    50   21   45       1
    51   21   46       1
    52   22   47       1
    53   22   48       1
    54   34   54       1
    55   27   49       1
    56   28   50       1
    57   29   51       1
    58   32   52       1
    59   33   53       1
@<TRIPOS>SUBSTRUCTURE
     1 LC3501      1 GROUP             4 D     LC3     0 **** LC3 D 501
