@<TRIPOS>MOLECULE
1vh3_CMK_2_ligand
   60    62     1     0     0
SMALL
NO_CHARGES


@<TRIPOS>ATOM
     1 N1C         66.9640    -0.3800     3.8730 N.pl3        1 CMK263   0.0000
     2 C2C         66.7300    -1.6060     4.4040 C.2          1 CMK263   0.0000
     3 N3C         65.5810    -2.2670     4.2960 N.2          1 CMK263   0.0000
     4 C4C         64.5820    -1.7150     3.6030 C.2          1 CMK263   0.0000
     5 C5C         64.7450    -0.4670     3.0180 C.2          1 CMK263   0.0000
     6 C6C         65.9710     0.1690     3.1710 C.2          1 CMK263   0.0000
     7 O2C         67.6020    -2.1850     5.0690 O.2          1 CMK263   0.0000
     8 N4C         63.4580    -2.4110     3.4950 N.pl3        1 CMK263   0.0000
     9 C1'         68.3050     0.2380     4.0860 C.3          1 CMK263   0.0000
    10 C2'         68.7190     0.4070     2.6340 C.3          1 CMK263   0.0000
    11 O2'         69.6480    -0.6060     2.3470 O.3          1 CMK263   0.0000
    12 C3'         69.3130     1.7820     2.6870 C.3          1 CMK263   0.0000
    13 C4'         68.3840     2.5090     3.6720 C.3          1 CMK263   0.0000
    14 O4'         67.6840     1.4770     4.3900 O.3          1 CMK263   0.0000
    15 O3'         70.5780     1.7740     3.3820 O.3          1 CMK263   0.0000
    16 C5'         67.4390     3.2960     2.7980 C.3          1 CMK263   0.0000
    17 O5'         67.7170     4.6700     2.9100 O.3          1 CMK263   0.0000
    18 PA          66.6510     5.5160     2.4500 P.3          1 CMK263   0.0000
    19 O1A         65.5440     4.6390     1.7870 O.co2        1 CMK263   0.0000
    20 O2A         67.3370     6.4080     1.4010 O.co2        1 CMK263  -1.0000
    21 O6          65.9640     7.8490     4.8530 O.3          1 CMK263   0.0000
    22 C2          65.2530     6.8720     4.1620 C.3          1 CMK263   0.0000
    23 O2          66.1240     6.2880     3.6110 O.3          1 CMK263   0.0000
    24 C3          64.5880     5.8560     5.1310 C.3          1 CMK263   0.0000
    25 C4          63.7770     6.5480     6.2450 C.3          1 CMK263   0.0000
    26 O4          63.3600     5.5360     7.1510 O.3          1 CMK263   0.0000
    27 C5          64.7260     7.4810     6.9290 C.3          1 CMK263   0.0000
    28 C6          65.1900     8.5470     5.8730 C.3          1 CMK263   0.0000
    29 C7          66.0760     9.6980     6.3000 C.3          1 CMK263   0.0000
    30 C1          64.1830     7.4690     3.2990 C.2          1 CMK263   0.0000
    31 O1X         64.5780     8.1490     2.2840 O.co2        1 CMK263   0.0000
    32 O1Y         63.0050     7.5670     3.8140 O.co2        1 CMK263  -1.0000
    33 O5          65.7880     6.6350     7.3280 O.3          1 CMK263   0.0000
    34 C8          67.2230    10.0420     5.3650 C.3          1 CMK263   0.0000
    35 O8          66.6870    10.4420     4.0880 O.3          1 CMK263   0.0000
    36 O7          65.3780    10.8260     6.7400 O.3          1 CMK263   0.0000
    37 H5C         64.0030    -0.0387     2.5023 H            1 CMK263   0.0000
    38 H6C         66.1128     1.0619     2.7436 H            1 CMK263   0.0000
    39 H4C1        62.6844    -2.0353     2.9848 H            1 CMK263   0.0000
    40 H4C2        63.3843    -3.3114     3.9238 H            1 CMK263   0.0000
    41 H1'         68.9420    -0.1713     4.7392 H            1 CMK263   0.0000
    42 H2'         67.9311     0.3694     2.0194 H            1 CMK263   0.0000
    43 H7          70.1541    -0.8392     3.1774 H            1 CMK263   0.0000
    44 H3'         69.3596     2.2245     1.7915 H            1 CMK263   0.0000
    45 H4'         68.8966     3.1049     4.2902 H            1 CMK263   0.0000
    46 H10         70.4423     1.4476     4.3174 H            1 CMK263   0.0000
    47 H5'1        66.4976     3.1233     3.0877 H            1 CMK263   0.0000
    48 H5'2        67.5524     3.0111     1.8462 H            1 CMK263   0.0000
    49 H13         65.3037     5.2998     5.5534 H            1 CMK263   0.0000
    50 H14         63.9740     5.2666     4.6060 H            1 CMK263   0.0000
    51 H15         62.9931     7.0415     5.8683 H            1 CMK263   0.0000
    52 H16         64.1632     5.0787     7.5327 H            1 CMK263   0.0000
    53 H17         64.2962     7.9184     7.7189 H            1 CMK263   0.0000
    54 H18         64.3745     8.9280     5.4374 H            1 CMK263   0.0000
    55 H19         66.5303     9.3594     7.1240 H            1 CMK263   0.0000
    56 H20         65.8842     6.6673     8.3228 H            1 CMK263   0.0000
    57 H21         67.8096     9.2410     5.2458 H            1 CMK263   0.0000
    58 H22         67.7581    10.7922     5.7534 H            1 CMK263   0.0000
    59 H23         66.1515     9.6912     3.7013 H            1 CMK263   0.0000
    60 H24         65.9249    11.3113     7.4222 H            1 CMK263   0.0000
@<TRIPOS>BOND
     1    1    2       1
     2    1    6       1
     3    1    9       1
     4    2    3       1
     5    2    7       2
     6    3    4       2
     7    4    5       1
     8    4    8       1
     9    5    6       2
    10    9   10       1
    11    9   14       1
    12   10   11       1
    13   10   12       1
    14   12   13       1
    15   12   15       1
    16   13   14       1
    17   13   16       1
    18   16   17       1
    19   17   18       1
    20   18   19      ar
    21   18   20      ar
    22   18   23       1
    23   21   22       1
    24   21   28       1
    25   22   23       1
    26   22   24       1
    27   22   30       1
    28   24   25       1
    29   25   26       1
    30   25   27       1
    31   27   28       1
    32   27   33       1
    33   28   29       1
    34   29   34       1
    35   29   36       1
    36   30   31      ar
    37   30   32      ar
    38   34   35       1
    39    5   37       1
    40    6   38       1
    41    8   39       1
    42    8   40       1
    43    9   41       1
    44   10   42       1
    45   11   43       1
    46   12   44       1
    47   13   45       1
    48   15   46       1
    49   16   47       1
    50   16   48       1
    51   36   60       1
    52   24   49       1
    53   24   50       1
    54   25   51       1
    55   26   52       1
    56   27   53       1
    57   28   54       1
    58   29   55       1
    59   35   59       1
    60   33   56       1
    61   34   57       1
    62   34   58       1
@<TRIPOS>SUBSTRUCTURE
     1 CMK263      1 GROUP             4 B     CMK     0 **** CMK B 263
