@<TRIPOS>MOLECULE
1pzh_NAD_1_ligand
   70    74     1     0     0
SMALL
NO_CHARGES


@<TRIPOS>ATOM
     1 PA           3.0940    16.4910    85.7150 P.3          1 NAD701   0.0000
     2 O1A          2.2230    15.4490    86.1320 O.co2        1 NAD701   0.0000
     3 O2A          3.6410    17.3960    86.7820 O.co2        1 NAD701  -1.0000
     4 O5B          4.2910    15.8380    84.9640 O.3          1 NAD701   0.0000
     5 C5B          5.3390    16.6320    84.3700 C.3          1 NAD701   0.0000
     6 C4B          6.4320    15.5470    84.4460 C.3          1 NAD701   0.0000
     7 O4B          7.6800    16.0030    83.7910 O.3          1 NAD701   0.0000
     8 C3B          6.9410    15.0690    85.8850 C.3          1 NAD701   0.0000
     9 O3B          6.9000    13.6340    86.0080 O.3          1 NAD701   0.0000
    10 C2B          8.3400    15.6480    85.9780 C.3          1 NAD701   0.0000
    11 O2B          9.2640    14.8960    86.7740 O.3          1 NAD701   0.0000
    12 C1B          8.7730    15.6180    84.5460 C.3          1 NAD701   0.0000
    13 N9A          9.9400    16.3940    84.3190 N.pl3        1 NAD701   0.0000
    14 C8A         10.3540    17.5990    84.8430 C.2          1 NAD701   0.0000
    15 N7A         11.5250    17.9930    84.3850 N.2          1 NAD701   0.0000
    16 C5A         11.8850    16.9890    83.5150 C.ar         1 NAD701   0.0000
    17 C6A         13.0380    16.8720    82.7460 C.ar         1 NAD701   0.0000
    18 N6A         14.0750    17.7570    82.7130 N.pl3        1 NAD701   0.0000
    19 N1A         13.1520    15.7340    81.9290 N.ar         1 NAD701   0.0000
    20 C2A         12.1300    14.7540    81.9040 C.ar         1 NAD701   0.0000
    21 N3A         10.9750    14.8490    82.6740 N.ar         1 NAD701   0.0000
    22 C4A         10.9030    15.9940    83.4630 C.ar         1 NAD701   0.0000
    23 O3           2.4320    17.3680    84.5880 O.3          1 NAD701   0.0000
    24 PN           1.3400    17.0860    83.4660 P.3          1 NAD701   0.0000
    25 O1N         -0.0040    17.1140    84.0990 O.co2        1 NAD701   0.0000
    26 O2N          1.7070    15.8180    82.8030 O.co2        1 NAD701  -1.0000
    27 O5D          1.5450    18.3570    82.5530 O.3          1 NAD701   0.0000
    28 C5D          2.7940    18.4010    81.7540 C.3          1 NAD701   0.0000
    29 C4D          2.9170    19.7270    81.0050 C.3          1 NAD701   0.0000
    30 O4D          1.8430    19.9140    80.0550 O.3          1 NAD701   0.0000
    31 C3D          2.8980    21.0470    81.8800 C.3          1 NAD701   0.0000
    32 O3D          3.8930    21.9980    81.3910 O.3          1 NAD701   0.0000
    33 C2D          1.4660    21.5060    81.6950 C.3          1 NAD701   0.0000
    34 O2D          1.2860    22.8810    82.0050 O.3          1 NAD701   0.0000
    35 C1D          1.2890    21.2330    80.2710 C.3          1 NAD701   0.0000
    36 N1N         -0.0820    21.1760    79.7080 N.ar         1 NAD701   1.0000
    37 C2N         -0.3020    21.5870    78.3980 C.ar         1 NAD701   0.0000
    38 C3N         -1.5760    21.5350    77.8990 C.ar         1 NAD701   0.0000
    39 C7N         -1.7880    21.9970    76.4590 C.2          1 NAD701   0.0000
    40 O7N         -2.9380    22.0070    76.0430 O.2          1 NAD701   0.0000
    41 N7N         -0.7550    22.3800    75.7160 N.am         1 NAD701   0.0000
    42 C4N         -2.6930    21.0650    78.7090 C.ar         1 NAD701   0.0000
    43 C5N         -2.4170    20.6440    80.0360 C.ar         1 NAD701   0.0000
    44 C6N         -1.1130    20.6900    80.5670 C.ar         1 NAD701   0.0000
    45 H5B1         5.5622    17.4429    84.9109 H            1 NAD701   0.0000
    46 H5B2         5.1309    16.9048    83.4307 H            1 NAD701   0.0000
    47 H4B          6.1018    14.7420    83.9530 H            1 NAD701   0.0000
    48 H3B          6.3654    15.4786    86.5927 H            1 NAD701   0.0000
    49 H5           7.4877    13.2228    85.3112 H            1 NAD701   0.0000
    50 H2B          8.2983    16.5928    86.3031 H            1 NAD701   0.0000
    51 H7           9.7338    14.2277    86.1973 H            1 NAD701   0.0000
    52 H1B          8.9869    14.6696    84.3117 H            1 NAD701   0.0000
    53 H8A          9.8187    18.1229    85.5055 H            1 NAD701   0.0000
    54 H6A1        14.8635    17.5815    82.1236 H            1 NAD701   0.0000
    55 H6A2        14.0469    18.5815    83.2782 H            1 NAD701   0.0000
    56 H2A         12.2433    13.9596    81.3073 H            1 NAD701   0.0000
    57 H5D1         2.7859    17.6511    81.0925 H            1 NAD701   0.0000
    58 H5D2         3.5779    18.2970    82.3662 H            1 NAD701   0.0000
    59 H4D          3.7769    19.7110    80.4948 H            1 NAD701   0.0000
    60 H3D          3.0704    20.8284    82.8405 H            1 NAD701   0.0000
    61 H17          4.2235    22.5557    82.1524 H            1 NAD701   0.0000
    62 H2D          0.8452    20.9412    82.2387 H            1 NAD701   0.0000
    63 H19          0.3563    23.0276    82.3428 H            1 NAD701   0.0000
    64 H1D          1.8241    21.8961    79.7476 H            1 NAD701   0.0000
    65 H2N          0.4548    21.9139    77.8319 H            1 NAD701   0.0000
    66 H7N1        -0.9012    22.6813    74.7738 H            1 NAD701   0.0000
    67 H7N2         0.1686    22.3669    76.0991 H            1 NAD701   0.0000
    68 H4N         -3.6229    21.0400    78.3419 H            1 NAD701   0.0000
    69 H5N         -3.1654    20.3070    80.6072 H            1 NAD701   0.0000
    70 H6N         -0.9186    20.3957    81.5027 H            1 NAD701   0.0000
@<TRIPOS>BOND
     1    1    2      ar
     2    1    3      ar
     3    1    4       1
     4    1   23       1
     5    4    5       1
     6    5    6       1
     7    6    7       1
     8    6    8       1
     9    7   12       1
    10    8    9       1
    11    8   10       1
    12   10   11       1
    13   10   12       1
    14   12   13       1
    15   13   14       1
    16   13   22       1
    17   14   15       2
    18   15   16       1
    19   16   17      ar
    20   16   22      ar
    21   17   18       1
    22   17   19      ar
    23   19   20      ar
    24   20   21      ar
    25   21   22      ar
    26   23   24       1
    27   24   25      ar
    28   24   26      ar
    29   24   27       1
    30   27   28       1
    31   28   29       1
    32   29   30       1
    33   29   31       1
    34   30   35       1
    35   31   32       1
    36   31   33       1
    37   33   34       1
    38   33   35       1
    39   35   36       1
    40   36   37      ar
    41   36   44      ar
    42   37   38      ar
    43   38   39       1
    44   38   42      ar
    45   39   40       2
    46   39   41      am
    47   42   43      ar
    48   43   44      ar
    49   44   70       1
    50    5   45       1
    51    5   46       1
    52    6   47       1
    53    8   48       1
    54    9   49       1
    55   10   50       1
    56   11   51       1
    57   12   52       1
    58   14   53       1
    59   18   54       1
    60   18   55       1
    61   20   56       1
    62   43   69       1
    63   28   57       1
    64   28   58       1
    65   29   59       1
    66   31   60       1
    67   32   61       1
    68   33   62       1
    69   34   63       1
    70   35   64       1
    71   37   65       1
    72   41   66       1
    73   41   67       1
    74   42   68       1
@<TRIPOS>SUBSTRUCTURE
     1 NAD701      1 GROUP             4 A     NAD     0 **** NAD A 701
