@<TRIPOS>MOLECULE
3ms5_REE_1_ligand
   24    23     1     0     0
SMALL
NO_CHARGES


@<TRIPOS>ATOM
     1 C1          21.4780    27.2900    88.0700 C.2          1 REE391   0.0000
     2 N1          21.8490    30.5560    87.9770 N.3          1 REE391   0.0000
     3 O1          22.7250    27.2920    88.0060 O.co2        1 REE391   0.0000
     4 C2          20.7030    28.4420    87.4420 C.3          1 REE391   0.0000
     5 N2          22.4660    31.8070    87.5960 N.4          1 REE391   1.0000
     6 O2          20.7640    26.3200    88.4500 O.co2        1 REE391  -1.0000
     7 C3          21.4610    29.6580    86.9080 C.3          1 REE391   0.0000
     8 C4          22.6400    32.5730    88.8550 C.3          1 REE391   0.0000
     9 C5          23.8320    31.5590    87.0470 C.3          1 REE391   0.0000
    10 C6          21.6880    32.5620    86.6080 C.3          1 REE391   0.0000
    11 H1          21.0256    30.7737    88.5011 H            1 REE391   0.0000
    12 H2          20.0674    28.7779    88.1371 H            1 REE391   0.0000
    13 H3          20.1870    28.0611    86.6747 H            1 REE391   0.0000
    14 H4          22.2832    29.3449    86.4326 H            1 REE391   0.0000
    15 H5          20.8729    30.1513    86.2671 H            1 REE391   0.0000
    16 H6          23.0659    33.4548    88.6525 H            1 REE391   0.0000
    17 H7          21.7472    32.7237    89.2796 H            1 REE391   0.0000
    18 H8          23.2241    32.0567    89.4813 H            1 REE391   0.0000
    19 H9          24.2498    32.4295    86.7867 H            1 REE391   0.0000
    20 H10         24.3953    31.1139    87.7431 H            1 REE391   0.0000
    21 H11         23.7660    30.9675    86.2434 H            1 REE391   0.0000
    22 H12         22.1654    33.4125    86.3871 H            1 REE391   0.0000
    23 H13         21.5818    32.0142    85.7782 H            1 REE391   0.0000
    24 H14         20.7864    32.7740    86.9851 H            1 REE391   0.0000
@<TRIPOS>BOND
     1    1    3      ar
     2    1    4       1
     3    1    6      ar
     4    2    5       1
     5    2    7       1
     6    4    7       1
     7    5    8       1
     8    5    9       1
     9    5   10       1
    10    2   11       1
    11   10   24       1
    12    4   12       1
    13    4   13       1
    14    7   14       1
    15    7   15       1
    16    8   16       1
    17    8   17       1
    18    8   18       1
    19    9   19       1
    20    9   20       1
    21    9   21       1
    22   10   22       1
    23   10   23       1
@<TRIPOS>SUBSTRUCTURE
     1 REE391      1 GROUP             4 A     REE     0 **** REE A 391
