@<TRIPOS>MOLECULE
1mbz_IOT_1_ligand
   66    68     1     0     0
SMALL
NO_CHARGES


@<TRIPOS>ATOM
     1 PA          -2.6100    92.6090    63.6170 P.3          1 IOT606   0.0000
     2 O1A         -3.1080    93.4800    62.4550 O.co2        1 IOT606   0.0000
     3 O2A         -1.1050    92.6340    63.9710 O.co2        1 IOT606  -1.0000
     4 O5'         -2.8850    92.6620    65.0030 O.3          1 IOT606   0.0000
     5 C5'         -4.2140    93.1580    65.4470 C.3          1 IOT606   0.0000
     6 C4'         -4.7360    94.2160    66.2680 C.3          1 IOT606   0.0000
     7 O4'         -4.3890    93.7470    67.5890 O.3          1 IOT606   0.0000
     8 C3'         -4.1580    95.6580    66.1430 C.3          1 IOT606   0.0000
     9 O3'         -4.8870    96.6340    65.5310 O.3          1 IOT606   0.0000
    10 C2'         -3.7170    95.9370    67.5710 C.3          1 IOT606   0.0000
    11 O2'         -4.6790    96.8850    68.1330 O.3          1 IOT606   0.0000
    12 C1'         -3.7260    94.7150    68.4060 C.3          1 IOT606   0.0000
    13 N9          -2.3740    94.3630    68.6400 N.pl3        1 IOT606   0.0000
    14 C8          -1.4310    93.7360    67.7660 C.2          1 IOT606   0.0000
    15 N7          -0.2350    93.5220    68.2670 N.2          1 IOT606   0.0000
    16 C5          -0.3130    94.0270    69.5590 C.ar         1 IOT606   0.0000
    17 C6           0.6910    94.1000    70.6770 C.ar         1 IOT606   0.0000
    18 N6           1.8520    93.6920    70.5960 N.pl3        1 IOT606   0.0000
    19 N1           0.1650    94.7180    71.8640 N.ar         1 IOT606   0.0000
    20 C2          -1.1740    95.2160    72.0580 C.ar         1 IOT606   0.0000
    21 N3          -2.0940    95.1460    71.0520 N.ar         1 IOT606   0.0000
    22 C4          -1.6430    94.5440    69.8190 C.ar         1 IOT606   0.0000
    23 CX          -4.0580    89.1610    63.1700 C.3          1 IOT606   0.0000
    24 CW          -3.2970    89.9780    62.9930 C.2          1 IOT606   0.0000
    25 OX1         -2.2670    89.8350    62.1060 O.2          1 IOT606   0.0000
    26 OX2         -3.0850    91.1070    63.7450 O.3          1 IOT606   0.0000
    27 NX          -5.6330    89.7740    62.9210 N.4          1 IOT606   1.0000
    28 CA          -6.1500    90.0000    61.5280 C.3          1 IOT606   0.0000
    29 CB          -7.2100    88.9230    61.1850 C.3          1 IOT606   0.0000
    30 CG          -6.7790    87.9300    60.1430 C.3          1 IOT606   0.0000
    31 CD          -7.8570    86.9380    59.9410 C.3          1 IOT606   0.0000
    32 NE          -8.7780    87.3190    58.9180 N.pl3        1 IOT606   1.0000
    33 CZ          -9.7380    86.5350    58.4480 C.cat        1 IOT606   0.0000
    34 NH1        -10.8030    86.1890    59.1730 N.pl3        1 IOT606   0.0000
    35 NH2         -9.6090    86.0820    57.2290 N.pl3        1 IOT606   0.0000
    36 C           -6.7990    91.3900    61.4300 C.2          1 IOT606   0.0000
    37 O           -6.8140    92.1030    62.4600 O.co2        1 IOT606   0.0000
    38 OX3         -7.2830    91.7590    60.3410 O.co2        1 IOT606  -1.0000
    39 H5'1        -4.6043    92.3462    65.8813 H            1 IOT606   0.0000
    40 H5'2        -4.6755    93.3243    64.5756 H            1 IOT606   0.0000
    41 H4'         -5.7313    94.2475    66.1770 H            1 IOT606   0.0000
    42 H3'         -3.3168    95.5700    65.6094 H            1 IOT606   0.0000
    43 H5          -4.6756    96.6447    64.5537 H            1 IOT606   0.0000
    44 H2'         -2.8024    96.3413    67.5709 H            1 IOT606   0.0000
    45 H7          -4.4254    97.0973    69.0767 H            1 IOT606   0.0000
    46 H1'         -4.2169    94.8643    69.2643 H            1 IOT606   0.0000
    47 H9          -1.6677    93.4761    66.8298 H            1 IOT606   0.0000
    48 H10          2.4663    93.7728    71.3809 H            1 IOT606   0.0000
    49 H11          2.1791    93.2803    69.7454 H            1 IOT606   0.0000
    50 H12         -1.4311    95.6163    72.9376 H            1 IOT606   0.0000
    51 HX1         -3.9758    88.8285    64.1095 H            1 IOT606   0.0000
    52 HX2         -3.8905    88.4077    62.5340 H            1 IOT606   0.0000
    53 H15         -5.6746    90.6567    63.3892 H            1 IOT606   0.0000
    54 HA          -5.3924    89.9400    60.8781 H            1 IOT606   0.0000
    55 HB1         -8.0305    89.3879    60.8523 H            1 IOT606   0.0000
    56 HB2         -7.4274    88.4216    62.0225 H            1 IOT606   0.0000
    57 HG1         -5.9486    87.4640    60.4484 H            1 IOT606   0.0000
    58 HG2         -6.5969    88.4059    59.2826 H            1 IOT606   0.0000
    59 HD1         -8.3590    86.8330    60.7994 H            1 IOT606   0.0000
    60 HD2         -7.4428    86.0637    59.6880 H            1 IOT606   0.0000
    61 HE          -8.6931    88.2372    58.5310 H            1 IOT606   0.0000
    62 HH11       -11.5044    85.5950    58.7791 H            1 IOT606   0.0000
    63 HH12       -10.8999    86.5237    60.1103 H            1 IOT606   0.0000
    64 HH21       -10.3126    85.4877    56.8394 H            1 IOT606   0.0000
    65 H27         -6.2629    89.1336    63.3604 H            1 IOT606   0.0000
    66 HH22        -8.8067    86.3296    56.6859 H            1 IOT606   0.0000
@<TRIPOS>BOND
     1    1    2      ar
     2    1    3      ar
     3    1    4       1
     4    1   26       1
     5    4    5       1
     6    5    6       1
     7    6    7       1
     8    6    8       1
     9    7   12       1
    10    8    9       1
    11    8   10       1
    12   10   11       1
    13   10   12       1
    14   12   13       1
    15   13   14       1
    16   13   22       1
    17   14   15       2
    18   15   16       1
    19   16   17      ar
    20   16   22      ar
    21   17   18       1
    22   17   19      ar
    23   19   20      ar
    24   20   21      ar
    25   21   22      ar
    26   23   24       1
    27   23   27       1
    28   24   25       2
    29   24   26       1
    30   27   28       1
    31   28   29       1
    32   28   36       1
    33   29   30       1
    34   30   31       1
    35   31   32       1
    36   32   33      ar
    37   33   34      ar
    38   33   35      ar
    39   36   37      ar
    40   36   38      ar
    41   35   66       1
    42    5   39       1
    43    5   40       1
    44    6   41       1
    45    8   42       1
    46    9   43       1
    47   10   44       1
    48   11   45       1
    49   12   46       1
    50   14   47       1
    51   18   48       1
    52   18   49       1
    53   20   50       1
    54   23   51       1
    55   23   52       1
    56   27   53       1
    57   28   54       1
    58   29   55       1
    59   29   56       1
    60   30   57       1
    61   30   58       1
    62   31   59       1
    63   31   60       1
    64   32   61       1
    65   34   62       1
    66   34   63       1
    67   35   64       1
    68   27   65       1
@<TRIPOS>SUBSTRUCTURE
     1 IOT606      1 GROUP             4 A     IOT     0 **** IOT A 606
