@<TRIPOS>MOLECULE
3wd4_A1L_1_ligand
   67    68     1     0     0
SMALL
NO_CHARGES


@<TRIPOS>ATOM
     1 C9         -20.4600    -7.0720   -31.1170 C.3          1 A1L511   0.0000
     2 N6         -21.0090    -6.1110   -30.1630 N.am         1 A1L511   0.0000
     3 C8         -20.3530    -4.9930   -29.9180 C.2          1 A1L511   0.0000
     4 O3         -19.3110    -4.7250   -30.4680 O.2          1 A1L511   0.0000
     5 N4         -20.8970    -4.1610   -29.0180 N.am         1 A1L511   0.0000
     6 C7         -20.4600    -2.9770   -28.6040 C.2          1 A1L511   0.0000
     7 N5         -19.3720    -2.4220   -29.0970 N.2          1 A1L511   0.0000
     8 N3         -21.1800    -2.3450   -27.7010 N.pl3        1 A1L511   0.0000
     9 C6         -20.8750    -1.0410   -27.1150 C.3          1 A1L511   0.0000
    10 C5         -20.8240     0.0540   -28.1640 C.3          1 A1L511   0.0000
    11 C4         -22.1780     0.6930   -28.4610 C.3          1 A1L511   0.0000
    12 C2         -22.1190     1.7970   -29.5260 C.3          1 A1L511   0.0000
    13 N2         -22.1660     3.1000   -28.8440 N.am         1 A1L511   0.0000
    14 C3         -21.3610     4.1320   -29.1330 C.2          1 A1L511   0.0000
    15 O1         -20.4820     4.1060   -29.9750 O.2          1 A1L511   0.0000
    16 C10        -21.5760     5.4110   -28.3390 C.3          1 A1L511   0.0000
    17 N7         -21.5280     6.5810   -29.2290 N.2          1 A1L511   0.0000
    18 N8         -20.6850     7.2750   -28.9930 N.1          1 A1L511   1.0000
    19 N9         -19.8540     7.9780   -28.7720 N.2          1 A1L511  -1.0000
    20 C1         -23.3780     1.6840   -30.3960 C.2          1 A1L511   0.0000
    21 O2         -24.4250     1.2760   -29.9020 O.2          1 A1L511   0.0000
    22 N1         -23.2910     2.0610   -31.6790 N.am         1 A1L511   0.0000
    23 C12        -24.4860     2.0850   -32.5270 C.3          1 A1L511   0.0000
    24 C13        -24.7060     0.8250   -33.3190 C.ar         1 A1L511   0.0000
    25 C20        -24.9060    -0.3670   -32.6560 C.ar         1 A1L511   0.0000
    26 C21        -25.1180    -1.5050   -33.3960 C.ar         1 A1L511   0.0000
    27 C22        -25.1410    -1.4510   -34.7760 C.ar         1 A1L511   0.0000
    28 C23        -24.9470    -0.2540   -35.4320 C.ar         1 A1L511   0.0000
    29 C24        -24.7310     0.8920   -34.7030 C.ar         1 A1L511   0.0000
    30 C11        -22.0670     2.5850   -32.2900 C.3          1 A1L511   0.0000
    31 C14        -20.9770     1.5240   -32.2810 C.ar         1 A1L511   0.0000
    32 C15        -19.6610     1.9300   -32.3020 C.ar         1 A1L511   0.0000
    33 C16        -18.6590     0.9970   -32.2800 C.ar         1 A1L511   0.0000
    34 C17        -18.9680    -0.3510   -32.2280 C.ar         1 A1L511   0.0000
    35 C18        -20.2870    -0.7660   -32.2150 C.ar         1 A1L511   0.0000
    36 C19        -21.3050     0.1730   -32.2370 C.ar         1 A1L511   0.0000
    37 H1         -21.0733    -7.8587   -31.1880 H            1 A1L511   0.0000
    38 H2         -20.3698    -6.6376   -32.0132 H            1 A1L511   0.0000
    39 H3         -19.5612    -7.3774   -30.8026 H            1 A1L511   0.0000
    40 H4         -21.8749    -6.2993   -29.6996 H            1 A1L511   0.0000
    41 H5         -19.0708    -1.5290   -28.7627 H            1 A1L511   0.0000
    42 H6         -22.0134    -2.7995   -27.3866 H            1 A1L511   0.0000
    43 H7         -19.9871    -1.0920   -26.6577 H            1 A1L511   0.0000
    44 H8         -21.5823    -0.8143   -26.4454 H            1 A1L511   0.0000
    45 H9         -20.4692    -0.3394   -29.0121 H            1 A1L511   0.0000
    46 H10        -20.2028     0.7687   -27.8426 H            1 A1L511   0.0000
    47 H11        -22.5324     1.0898   -27.6143 H            1 A1L511   0.0000
    48 H12        -22.8008    -0.0211   -28.7807 H            1 A1L511   0.0000
    49 H13        -21.2918     1.7139   -30.0817 H            1 A1L511   0.0000
    50 H14        -22.8423     3.2236   -28.1179 H            1 A1L511   0.0000
    51 H15        -20.8589     5.4937   -27.6470 H            1 A1L511   0.0000
    52 H16        -22.4692     5.3744   -27.8907 H            1 A1L511   0.0000
    53 H17        -24.4001     2.8475   -33.1683 H            1 A1L511   0.0000
    54 H18        -25.2833     2.2303   -31.9412 H            1 A1L511   0.0000
    55 H19        -24.8970    -0.4026   -31.6567 H            1 A1L511   0.0000
    56 H20        -25.2568    -2.3797   -32.9316 H            1 A1L511   0.0000
    57 H21        -25.2995    -2.2860   -35.3030 H            1 A1L511   0.0000
    58 H22        -24.9632    -0.2193   -36.4313 H            1 A1L511   0.0000
    59 H23        -24.5931     1.7666   -35.1679 H            1 A1L511   0.0000
    60 H24        -21.7555     3.3824   -31.7732 H            1 A1L511   0.0000
    61 H25        -22.2583     2.8535   -33.2341 H            1 A1L511   0.0000
    62 H26        -19.4377     2.9043   -32.3333 H            1 A1L511   0.0000
    63 H27        -17.7031     1.2899   -32.3015 H            1 A1L511   0.0000
    64 H28        -18.2333    -1.0288   -32.1997 H            1 A1L511   0.0000
    65 H29        -20.5053    -1.7415   -32.1898 H            1 A1L511   0.0000
    66 H30        -22.2621    -0.1162   -32.2215 H            1 A1L511   0.0000
    67 H31        -21.7497    -4.4755   -28.6008 H            1 A1L511   0.0000
@<TRIPOS>BOND
     1    1    2       1
     2    2    3      am
     3    3    4       2
     4    3    5      am
     5    5    6       1
     6    6    7       2
     7    6    8       1
     8    8    9       1
     9    9   10       1
    10   10   11       1
    11   11   12       1
    12   12   13       1
    13   12   20       1
    14   13   14      am
    15   14   15       2
    16   14   16       1
    17   16   17       1
    18   17   18       2
    19   18   19       2
    20   20   21       2
    21   20   22      am
    22   22   23       1
    23   22   30       1
    24   23   24       1
    25   24   25      ar
    26   24   29      ar
    27   25   26      ar
    28   26   27      ar
    29   27   28      ar
    30   28   29      ar
    31   30   31       1
    32   31   32      ar
    33   31   36      ar
    34   32   33      ar
    35   33   34      ar
    36   34   35      ar
    37   35   36      ar
    38    1   37       1
    39    1   38       1
    40    1   39       1
    41    2   40       1
    42    5   67       1
    43    7   41       1
    44    8   42       1
    45    9   43       1
    46    9   44       1
    47   10   45       1
    48   10   46       1
    49   11   47       1
    50   11   48       1
    51   12   49       1
    52   13   50       1
    53   16   51       1
    54   16   52       1
    55   23   53       1
    56   23   54       1
    57   25   55       1
    58   26   56       1
    59   27   57       1
    60   28   58       1
    61   29   59       1
    62   30   60       1
    63   30   61       1
    64   32   62       1
    65   33   63       1
    66   34   64       1
    67   35   65       1
    68   36   66       1
@<TRIPOS>SUBSTRUCTURE
     1 A1L511      1 GROUP             4 A     A1L     0 **** A1L A 511
