@<TRIPOS>MOLECULE
4glb_XXH_1_ligand
   16    16     1     0     0
SMALL
NO_CHARGES


@<TRIPOS>ATOM
     1 O3         -36.1570    -3.3390    10.3720 O.2          1 XXH301   0.0000
     2 C4         -37.2900    -5.1940    11.2390 C.ar         1 XXH301   0.0000
     3 C5         -37.0590    -4.1490    10.2240 C.2          1 XXH301   0.0000
     4 C6         -37.3340    -4.8450    12.5850 C.ar         1 XXH301   0.0000
     5 N1         -37.9360    -8.1470    14.1540 N.2          1 XXH301   1.0000
     6 C7         -37.5470    -5.8300    13.5450 C.ar         1 XXH301   0.0000
     7 C3         -37.4580    -6.5230    10.8460 C.ar         1 XXH301   0.0000
     8 C2         -37.6750    -7.5100    11.8080 C.ar         1 XXH301   0.0000
     9 C1         -37.7190    -7.1650    13.1650 C.ar         1 XXH301   0.0000
    10 O1         -38.4500    -9.2230    13.8750 O.co2        1 XXH301   0.0000
    11 O2         -37.6120    -7.9280    15.3110 O.co2        1 XXH301  -1.0000
    12 H1         -37.6422    -4.1036     9.4129 H            1 XXH301   0.0000
    13 H2         -37.2132    -3.8915    12.8613 H            1 XXH301   0.0000
    14 H3         -37.5773    -5.5815    14.5132 H            1 XXH301   0.0000
    15 H4         -37.4229    -6.7671     9.8769 H            1 XXH301   0.0000
    16 H5         -37.7989    -8.4623    11.5292 H            1 XXH301   0.0000
@<TRIPOS>BOND
     1    1    3       2
     2    2    3       1
     3    2    4      ar
     4    2    7      ar
     5    4    6      ar
     6    5    9       1
     7    5   10      ar
     8    5   11      ar
     9    6    9      ar
    10    7    8      ar
    11    8    9      ar
    12    3   12       1
    13    4   13       1
    14    6   14       1
    15    7   15       1
    16    8   16       1
@<TRIPOS>SUBSTRUCTURE
     1 XXH301      1 GROUP             4 A     XXH     0 **** XXH A 301
