@<TRIPOS>MOLECULE
3i68_J4Z_1_ligand
   40    44     1     0     0
SMALL
NO_CHARGES


@<TRIPOS>ATOM
     1 C1         -23.7770   -18.8300    14.3950 C.ar         1 J4Z1001   0.0000
     2 N1         -22.3360   -16.9970    15.0920 N.pl3        1 J4Z1001   0.0000
     3 C2         -22.5180   -18.2210    14.5170 C.ar         1 J4Z1001   0.0000
     4 N2         -23.0110   -15.1240    16.3320 N.pl3        1 J4Z1001   0.0000
     5 C3         -21.3800   -18.8630    14.0270 C.ar         1 J4Z1001   0.0000
     6 N3         -22.3550   -14.1910    15.5440 N.2          1 J4Z1001   0.0000
     7 C4         -21.4640   -20.1020    13.4100 C.ar         1 J4Z1001   0.0000
     8 N4         -23.4520   -13.2300    17.2320 N.2          1 J4Z1001   0.0000
     9 C5         -20.3130   -20.7280    12.9310 C.ar         1 J4Z1001   0.0000
    10 N5         -24.3730   -15.2460    18.2700 N.2          1 J4Z1001   0.0000
    11 C6         -20.4160   -21.9760    12.3150 C.ar         1 J4Z1001   0.0000
    12 C7         -21.7460   -22.6410    12.1880 C.ar         1 J4Z1001   0.0000
    13 C8         -22.9010   -22.0190    12.6780 C.ar         1 J4Z1001   0.0000
    14 C9         -22.8010   -20.7600    13.2920 C.ar         1 J4Z1001   0.0000
    15 C10        -23.9240   -20.0930    13.7980 C.ar         1 J4Z1001   0.0000
    16 C11        -23.0250   -16.4550    16.1440 C.2          1 J4Z1001   0.0000
    17 C12        -23.7520   -17.2280    17.0680 C.2          1 J4Z1001   0.0000
    18 C13        -24.4310   -16.6010    18.1310 C.2          1 J4Z1001   0.0000
    19 C14        -25.2080   -17.4370    19.1230 C.3          1 J4Z1001   0.0000
    20 C15        -23.6500   -14.5600    17.3460 C.2          1 J4Z1001   0.0000
    21 C16        -22.6500   -13.0070    16.1430 C.2          1 J4Z1001   0.0000
    22 C22        -19.2870   -22.6270    11.8150 C.ar         1 J4Z1001   0.0000
    23 C23        -19.4050   -23.8790    11.2010 C.ar         1 J4Z1001   0.0000
    24 C24        -20.6530   -24.4980    11.0710 C.ar         1 J4Z1001   0.0000
    25 C25        -21.8060   -23.8890    11.5620 C.ar         1 J4Z1001   0.0000
    26 H1         -24.5862   -18.3547    14.7404 H            1 J4Z1001   0.0000
    27 H2         -21.6137   -16.4283    14.6984 H            1 J4Z1001   0.0000
    28 H3         -20.4878   -18.4216    14.1225 H            1 J4Z1001   0.0000
    29 H4         -19.4213   -20.2860    13.0283 H            1 J4Z1001   0.0000
    30 H5         -23.7903   -22.4680    12.5913 H            1 J4Z1001   0.0000
    31 H6         -24.8284   -20.5150    13.7344 H            1 J4Z1001   0.0000
    32 H7         -23.7866   -18.2226    16.9700 H            1 J4Z1001   0.0000
    33 H8         -25.1427   -18.4020    18.8690 H            1 J4Z1001   0.0000
    34 H9         -24.8277   -17.3069    20.0387 H            1 J4Z1001   0.0000
    35 H10        -26.1674   -17.1550    19.1173 H            1 J4Z1001   0.0000
    36 H11        -22.3308   -12.1104    15.8361 H            1 J4Z1001   0.0000
    37 H12        -18.3883   -22.1961    11.8961 H            1 J4Z1001   0.0000
    38 H13        -18.5876   -24.3367    10.8510 H            1 J4Z1001   0.0000
    39 H14        -20.7183   -25.3883    10.6202 H            1 J4Z1001   0.0000
    40 H15        -22.6877   -24.3508    11.4652 H            1 J4Z1001   0.0000
@<TRIPOS>BOND
     1    1    3      ar
     2    1   15      ar
     3    2    3       1
     4    2   16       1
     5    3    5      ar
     6    4    6       1
     7    4   16       1
     8    4   20       1
     9    5    7      ar
    10    6   21       2
    11    7    9      ar
    12    7   14      ar
    13    8   20       2
    14    8   21       1
    15    9   11      ar
    16   10   18       2
    17   10   20       1
    18   11   12      ar
    19   11   22      ar
    20   12   13      ar
    21   12   25      ar
    22   13   14      ar
    23   14   15      ar
    24   16   17       2
    25   17   18       1
    26   18   19       1
    27   22   23      ar
    28   23   24      ar
    29   24   25      ar
    30    1   26       1
    31    2   27       1
    32    5   28       1
    33    9   29       1
    34   13   30       1
    35   15   31       1
    36   17   32       1
    37   19   33       1
    38   19   34       1
    39   19   35       1
    40   21   36       1
    41   22   37       1
    42   23   38       1
    43   24   39       1
    44   25   40       1
@<TRIPOS>SUBSTRUCTURE
     1 J4Z1001     1 GROUP             4 A     J4Z     0 **** J4Z A1001
