@<TRIPOS>MOLECULE
3vrb_FTN_2_ligand
   41    42     1     0     0
SMALL
NO_CHARGES


@<TRIPOS>ATOM
     1 N           92.8980    21.4870    63.9280 N.am         1 FTN202   0.0000
     2 C1          91.0890    20.4650    60.1470 C.3          1 FTN202   0.0000
     3 F1          91.5620    21.6790    59.9030 F            1 FTN202   0.0000
     4 O1          91.9720    22.2670    62.0620 O.2          1 FTN202   0.0000
     5 C2          92.1600    19.6230    60.7740 C.ar         1 FTN202   0.0000
     6 F2          90.0150    20.5810    60.9220 F            1 FTN202   0.0000
     7 O2          90.6200    22.7380    67.3110 O.3          1 FTN202   0.0000
     8 C3          92.8770    20.0700    61.9830 C.ar         1 FTN202   0.0000
     9 F3          90.7940    19.8660    59.0090 F            1 FTN202   0.0000
    10 C4          93.8620    19.2350    62.4990 C.ar         1 FTN202   0.0000
    11 C5          94.1640    18.0180    61.8880 C.ar         1 FTN202   0.0000
    12 C6          93.4880    17.6000    60.7490 C.ar         1 FTN202   0.0000
    13 C7          92.4950    18.4020    60.1990 C.ar         1 FTN202   0.0000
    14 C8          92.5480    21.3700    62.6570 C.2          1 FTN202   0.0000
    15 C9          92.6510    22.5800    64.6320 C.2          1 FTN202   0.0000
    16 C10         92.4380    22.3250    65.9150 C.2          1 FTN202   0.0000
    17 C11         91.8150    23.3470    66.8180 C.3          1 FTN202   0.0000
    18 C12         91.5420    24.6450    66.0760 C.2          1 FTN202   0.0000
    19 C13         92.2620    25.0270    65.0290 C.2          1 FTN202   0.0000
    20 C14         92.6210    23.9790    64.0100 C.3          1 FTN202   0.0000
    21 C15         90.5280    22.6150    68.7490 C.3          1 FTN202   0.0000
    22 C16         89.1410    22.1250    69.1770 C.3          1 FTN202   0.0000
    23 C17         90.8470    23.9140    69.5030 C.3          1 FTN202   0.0000
    24 H1          93.3655    20.7226    64.3720 H            1 FTN202   0.0000
    25 H2          94.3612    19.5111    63.3203 H            1 FTN202   0.0000
    26 H3          94.8791    17.4368    62.2765 H            1 FTN202   0.0000
    27 H4          93.7154    16.7232    60.3252 H            1 FTN202   0.0000
    28 H5          92.0141    18.0963    59.3772 H            1 FTN202   0.0000
    29 H6          92.6977    21.4342    66.2878 H            1 FTN202   0.0000
    30 H7          92.4317    23.5291    67.5838 H            1 FTN202   0.0000
    31 H8          90.7941    25.2312    66.3875 H            1 FTN202   0.0000
    32 H9          92.5555    25.9768    64.9208 H            1 FTN202   0.0000
    33 H10         91.9425    23.9938    63.2755 H            1 FTN202   0.0000
    34 H11         93.5239    24.1870    63.6339 H            1 FTN202   0.0000
    35 H12         91.1940    21.9268    69.0369 H            1 FTN202   0.0000
    36 H13         89.1070    22.0497    70.1736 H            1 FTN202   0.0000
    37 H14         88.4475    22.7759    68.8680 H            1 FTN202   0.0000
    38 H15         88.9632    21.2296    68.7688 H            1 FTN202   0.0000
    39 H16         90.7644    23.7570    70.4871 H            1 FTN202   0.0000
    40 H17         91.7799    24.2033    69.2887 H            1 FTN202   0.0000
    41 H18         90.2044    24.6277    69.2242 H            1 FTN202   0.0000
@<TRIPOS>BOND
     1    1   14      am
     2    1   15       1
     3    2    3       1
     4    2    5       1
     5    2    6       1
     6    2    9       1
     7    4   14       2
     8    5    8      ar
     9    5   13      ar
    10    7   17       1
    11    7   21       1
    12    8   10      ar
    13    8   14       1
    14   10   11      ar
    15   11   12      ar
    16   12   13      ar
    17   15   16       2
    18   15   20       1
    19   16   17       1
    20   17   18       1
    21   18   19       2
    22   19   20       1
    23   21   22       1
    24   21   23       1
    25    1   24       1
    26   10   25       1
    27   11   26       1
    28   12   27       1
    29   13   28       1
    30   16   29       1
    31   17   30       1
    32   18   31       1
    33   19   32       1
    34   20   33       1
    35   20   34       1
    36   21   35       1
    37   22   36       1
    38   22   37       1
    39   22   38       1
    40   23   39       1
    41   23   40       1
    42   23   41       1
@<TRIPOS>SUBSTRUCTURE
     1 FTN202      1 GROUP             4 C     FTN     0 **** FTN C 202
