@<TRIPOS>MOLECULE
3ab1_FAD_1_ligand
   84    89     1     0     0
SMALL
NO_CHARGES


@<TRIPOS>ATOM
     1 PA          66.6050    37.8400    77.9240 P.3          1 FAD361   0.0000
     2 O1A         66.4320    39.2790    78.3160 O.co2        1 FAD361   0.0000
     3 O2A         67.7080    37.6810    76.9150 O.co2        1 FAD361  -1.0000
     4 O5B         66.8790    36.9730    79.2420 O.3          1 FAD361   0.0000
     5 C5B         67.3470    35.6450    79.1080 C.3          1 FAD361   0.0000
     6 C4B         68.2180    35.2760    80.3070 C.3          1 FAD361   0.0000
     7 O4B         68.6640    33.9380    80.2240 O.3          1 FAD361   0.0000
     8 C3B         69.4690    36.1210    80.4230 C.3          1 FAD361   0.0000
     9 O3B         69.3910    36.7260    81.6930 O.3          1 FAD361   0.0000
    10 C2B         70.6320    35.1350    80.3310 C.3          1 FAD361   0.0000
    11 O2B         71.6730    35.4700    81.2160 O.3          1 FAD361   0.0000
    12 C1B         69.9860    33.8260    80.7260 C.3          1 FAD361   0.0000
    13 N9A         70.5430    32.5910    80.1440 N.pl3        1 FAD361   0.0000
    14 C8A         70.8420    32.3380    78.8340 C.2          1 FAD361   0.0000
    15 N7A         71.2700    31.0560    78.7430 N.2          1 FAD361   0.0000
    16 C5A         71.2540    30.4820    79.9680 C.ar         1 FAD361   0.0000
    17 C6A         71.5970    29.2070    80.4390 C.ar         1 FAD361   0.0000
    18 N6A         71.7650    28.1760    79.5990 N.pl3        1 FAD361   0.0000
    19 N1A         71.4540    28.9370    81.7860 N.ar         1 FAD361   0.0000
    20 C2A         70.9760    29.8940    82.6610 C.ar         1 FAD361   0.0000
    21 N3A         70.6480    31.1420    82.1780 N.ar         1 FAD361   0.0000
    22 C4A         70.7800    31.4360    80.8570 C.ar         1 FAD361   0.0000
    23 N1          62.0010    45.3240    73.8500 N.2          1 FAD361   0.0000
    24 C2          60.8410    46.0420    74.0630 C.2          1 FAD361   0.0000
    25 O2          59.7650    45.4560    74.1130 O.2          1 FAD361   0.0000
    26 N3          60.8870    47.4150    74.2150 N.pl3        1 FAD361   0.0000
    27 C4          62.0970    48.0760    74.1520 C.2          1 FAD361   0.0000
    28 O4          62.1340    49.3020    74.2770 O.2          1 FAD361   0.0000
    29 C4X         63.2700    47.3470    73.9390 C.2          1 FAD361   0.0000
    30 N5          64.4850    47.9980    73.8820 N.2          1 FAD361   0.0000
    31 C5X         65.6520    47.2870    73.6650 C.ar         1 FAD361   0.0000
    32 C6          66.8640    47.9780    73.6070 C.ar         1 FAD361   0.0000
    33 C7          68.0600    47.2930    73.4010 C.ar         1 FAD361   0.0000
    34 C7M         69.3430    48.0880    73.3520 C.3          1 FAD361   0.0000
    35 C8          68.0380    45.9020    73.2530 C.ar         1 FAD361   0.0000
    36 C8M         69.3040    45.1220    73.0210 C.3          1 FAD361   0.0000
    37 C9          66.8190    45.2130    73.3090 C.ar         1 FAD361   0.0000
    38 C9A         65.6150    45.8970    73.5170 C.ar         1 FAD361   0.0000
    39 N10         64.3910    45.2330    73.5760 N.pl3        1 FAD361   0.0000
    40 C10         63.2230    45.9580    73.7860 C.2          1 FAD361   0.0000
    41 C1'         64.3290    43.7310    73.4730 C.3          1 FAD361   0.0000
    42 C2'         64.1500    43.1200    74.8600 C.3          1 FAD361   0.0000
    43 O2'         65.2260    43.5130    75.6960 O.3          1 FAD361   0.0000
    44 C3'         64.0200    41.6030    74.8200 C.3          1 FAD361   0.0000
    45 O3'         62.9280    41.2350    73.9970 O.3          1 FAD361   0.0000
    46 C4'         63.8150    41.0190    76.2190 C.3          1 FAD361   0.0000
    47 O4'         64.9590    41.2380    77.0160 O.3          1 FAD361   0.0000
    48 C5'         63.5380    39.5240    76.1630 C.3          1 FAD361   0.0000
    49 O5'         63.5570    38.9820    77.4630 O.3          1 FAD361   0.0000
    50 P           63.7670    37.4060    77.6220 P.3          1 FAD361   0.0000
    51 O1P         62.8910    36.6710    76.6410 O.co2        1 FAD361   0.0000
    52 O2P         63.5580    36.9100    79.0240 O.co2        1 FAD361  -1.0000
    53 O3P         65.3130    37.2150    77.1850 O.3          1 FAD361   0.0000
    54 H5B1        67.8867    35.5669    78.2698 H            1 FAD361   0.0000
    55 H5B2        66.5664    35.0217    79.0612 H            1 FAD361   0.0000
    56 H4B         67.6784    35.3840    81.1419 H            1 FAD361   0.0000
    57 H3B         69.5142    36.8059    79.6958 H            1 FAD361   0.0000
    58 H5          69.3596    36.0177    82.3983 H            1 FAD361   0.0000
    59 H2B         70.9742    35.0859    79.3927 H            1 FAD361   0.0000
    60 H7          71.3282    35.4616    82.1546 H            1 FAD361   0.0000
    61 H1B         69.9629    33.7485    81.7227 H            1 FAD361   0.0000
    62 H8A         70.7593    32.9854    78.0764 H            1 FAD361   0.0000
    63 H6A1        72.0097    27.2746    79.9564 H            1 FAD361   0.0000
    64 H6A2        71.6457    28.3082    78.6150 H            1 FAD361   0.0000
    65 H2A         70.8695    29.6833    83.6327 H            1 FAD361   0.0000
    66 H13         60.0437    47.9294    74.3706 H            1 FAD361   0.0000
    67 H14         66.8738    48.9722    73.7141 H            1 FAD361   0.0000
    68 H7M1        70.1132    47.4688    73.1993 H            1 FAD361   0.0000
    69 H7M2        69.2957    48.7515    72.6054 H            1 FAD361   0.0000
    70 H7M3        69.4697    48.5701    74.2189 H            1 FAD361   0.0000
    71 H8M1        69.0863    44.1493    72.9411 H            1 FAD361   0.0000
    72 H8M2        69.7395    45.4365    72.1775 H            1 FAD361   0.0000
    73 H8M3        69.9274    45.2619    73.7902 H            1 FAD361   0.0000
    74 H21         66.8088    44.2191    73.1989 H            1 FAD361   0.0000
    75 H1'1        65.1782    43.3914    73.0686 H            1 FAD361   0.0000
    76 H1'2        63.5565    43.4703    72.8940 H            1 FAD361   0.0000
    77 H2'         63.3072    43.4896    75.2512 H            1 FAD361   0.0000
    78 H25         65.4005    42.7980    76.3729 H            1 FAD361   0.0000
    79 H3'         64.8579    41.2193    74.4318 H            1 FAD361   0.0000
    80 H27         63.1112    40.3456    73.5781 H            1 FAD361   0.0000
    81 H4'         63.0340    41.4746    76.6460 H            1 FAD361   0.0000
    82 H29         65.3311    40.3589    77.3137 H            1 FAD361   0.0000
    83 H5'1        64.2398    39.0777    75.6077 H            1 FAD361   0.0000
    84 H5'2        62.6395    39.3688    75.7525 H            1 FAD361   0.0000
@<TRIPOS>BOND
     1    1    2      ar
     2    1    3      ar
     3    1    4       1
     4    1   53       1
     5    4    5       1
     6    5    6       1
     7    6    7       1
     8    6    8       1
     9    7   12       1
    10    8    9       1
    11    8   10       1
    12   10   11       1
    13   10   12       1
    14   12   13       1
    15   13   14       1
    16   13   22       1
    17   14   15       2
    18   15   16       1
    19   16   17      ar
    20   16   22      ar
    21   17   18       1
    22   17   19      ar
    23   19   20      ar
    24   20   21      ar
    25   21   22      ar
    26   23   24       1
    27   23   40       2
    28   24   25       2
    29   24   26       1
    30   26   27       1
    31   27   28       2
    32   27   29       1
    33   29   30       2
    34   29   40       1
    35   30   31       1
    36   31   32      ar
    37   31   38      ar
    38   32   33      ar
    39   33   34       1
    40   33   35      ar
    41   35   36       1
    42   35   37      ar
    43   37   38      ar
    44   38   39       1
    45   39   40       1
    46   39   41       1
    47   41   42       1
    48   42   43       1
    49   42   44       1
    50   44   45       1
    51   44   46       1
    52   46   47       1
    53   46   48       1
    54   48   49       1
    55   49   50       1
    56   50   51      ar
    57   50   52      ar
    58   50   53       1
    59   48   84       1
    60    5   54       1
    61    5   55       1
    62    6   56       1
    63    8   57       1
    64    9   58       1
    65   10   59       1
    66   11   60       1
    67   12   61       1
    68   14   62       1
    69   18   63       1
    70   18   64       1
    71   20   65       1
    72   26   66       1
    73   32   67       1
    74   34   68       1
    75   34   69       1
    76   34   70       1
    77   36   71       1
    78   36   72       1
    79   36   73       1
    80   37   74       1
    81   41   75       1
    82   41   76       1
    83   42   77       1
    84   43   78       1
    85   44   79       1
    86   45   80       1
    87   46   81       1
    88   47   82       1
    89   48   83       1
@<TRIPOS>SUBSTRUCTURE
     1 FAD361      1 GROUP             4 A     FAD     0 **** FAD A 361
