@<TRIPOS>MOLECULE
4aff_ATP_1_ligand
   43    45     1     0     0
SMALL
NO_CHARGES


@<TRIPOS>ATOM
     1 PG          17.6020    24.1410    22.2160 P.3          1 ATP1117   0.0000
     2 O1G         18.9860    24.0210    22.7440 O.co2        1 ATP1117   0.0000
     3 O2G         16.8220    22.8880    22.3750 O.co2        1 ATP1117  -1.0000
     4 O3G         17.5190    24.7620    20.8220 O.co2        1 ATP1117  -1.0000
     5 PB          16.7220    26.7980    23.0500 P.3          1 ATP1117   0.0000
     6 O1B         17.6770    27.2950    22.0430 O.co2        1 ATP1117   0.0000
     7 O2B         16.7340    27.4250    24.4070 O.co2        1 ATP1117  -1.0000
     8 O3B         16.8660    25.2290    23.2200 O.3          1 ATP1117   0.0000
     9 PA          14.6130    26.5730    21.0660 P.3          1 ATP1117   0.0000
    10 O1A         14.0160    25.2510    21.0690 O.co2        1 ATP1117   0.0000
    11 O2A         15.6520    26.8610    20.0290 O.co2        1 ATP1117  -1.0000
    12 O3A         15.2410    26.9470    22.5140 O.3          1 ATP1117   0.0000
    13 O5'         13.5120    27.7300    21.0300 O.3          1 ATP1117   0.0000
    14 C5'         12.3390    27.5170    20.2240 C.3          1 ATP1117   0.0000
    15 C4'         11.5530    28.7590    20.1740 C.3          1 ATP1117   0.0000
    16 O4'         11.0660    29.0940    21.4950 O.3          1 ATP1117   0.0000
    17 C3'         12.2540    30.0300    19.7470 C.3          1 ATP1117   0.0000
    18 O3'         12.4020    30.1010    18.3170 O.3          1 ATP1117   0.0000
    19 C2'         11.3440    31.1300    20.2990 C.3          1 ATP1117   0.0000
    20 O2'         10.1890    31.2180    19.4760 O.3          1 ATP1117   0.0000
    21 C1'         10.9600    30.4950    21.6260 C.3          1 ATP1117   0.0000
    22 N9          11.8160    30.9270    22.7470 N.pl3        1 ATP1117   0.0000
    23 C8          12.9420    30.3160    23.1770 C.2          1 ATP1117   0.0000
    24 N7          13.4310    30.8860    24.3010 N.2          1 ATP1117   0.0000
    25 C5          12.5540    31.9050    24.5510 C.ar         1 ATP1117   0.0000
    26 C6          12.4420    32.8490    25.6190 C.ar         1 ATP1117   0.0000
    27 N6          13.3010    32.8520    26.6730 N.pl3        1 ATP1117   0.0000
    28 N1          11.4440    33.7230    25.6010 N.ar         1 ATP1117   0.0000
    29 C2          10.5410    33.6730    24.5920 C.ar         1 ATP1117   0.0000
    30 N3          10.5360    32.8220    23.5540 N.ar         1 ATP1117   0.0000
    31 C4          11.5660    31.9570    23.5970 C.ar         1 ATP1117   0.0000
    32 H5'1        11.7856    26.7872    20.6254 H            1 ATP1117   0.0000
    33 H5'2        12.6125    27.2570    19.2979 H            1 ATP1117   0.0000
    34 H4'         10.7668    28.6131    19.5735 H            1 ATP1117   0.0000
    35 H3'         13.1523    30.0837    20.1831 H            1 ATP1117   0.0000
    36 H5          13.2689    29.6799    18.0503 H            1 ATP1117   0.0000
    37 H2'         11.8133    32.0064    20.4074 H            1 ATP1117   0.0000
    38 H7           9.5845    31.9339    19.8254 H            1 ATP1117   0.0000
    39 H1'         10.0106    30.7297    21.8345 H            1 ATP1117   0.0000
    40 H9          13.3639    29.5342    22.7178 H            1 ATP1117   0.0000
    41 H10         13.1940    33.5267    27.4033 H            1 ATP1117   0.0000
    42 H11         14.0398    32.1795    26.7178 H            1 ATP1117   0.0000
    43 H12          9.7985    34.3420    24.6241 H            1 ATP1117   0.0000
@<TRIPOS>BOND
     1    1    2      ar
     2    1    3      ar
     3    1    4      ar
     4    1    8       1
     5    5    6      ar
     6    5    7      ar
     7    5    8       1
     8    5   12       1
     9    9   10      ar
    10    9   11      ar
    11    9   12       1
    12    9   13       1
    13   13   14       1
    14   14   15       1
    15   15   16       1
    16   15   17       1
    17   16   21       1
    18   17   18       1
    19   17   19       1
    20   19   20       1
    21   19   21       1
    22   21   22       1
    23   22   23       1
    24   22   31       1
    25   23   24       2
    26   24   25       1
    27   25   26      ar
    28   25   31      ar
    29   26   27       1
    30   26   28      ar
    31   28   29      ar
    32   29   30      ar
    33   30   31      ar
    34   29   43       1
    35   27   42       1
    36   27   41       1
    37   23   40       1
    38   14   32       1
    39   14   33       1
    40   15   34       1
    41   17   35       1
    42   18   36       1
    43   19   37       1
    44   20   38       1
    45   21   39       1
@<TRIPOS>SUBSTRUCTURE
     1 ATP1117     1 GROUP             4 A     ATP     0 **** ATP A1117
