@<TRIPOS>MOLECULE
3npc_B96_2_ligand
   77    81     1     0     0
SMALL
NO_CHARGES


@<TRIPOS>ATOM
     1 C1          55.1140    93.0950    23.2000 C.2          1 B96365   0.0000
     2 O1          53.9950    93.5140    22.9440 O.2          1 B96365   0.0000
     3 N2          55.8580    93.6470    24.2000 N.am         1 B96365   0.0000
     4 C3          55.3940    94.6710    25.0440 C.ar         1 B96365   0.0000
     5 C4          56.1220    95.8730    25.2630 C.ar         1 B96365   0.0000
     6 C5          55.5760    96.8530    26.1510 C.ar         1 B96365   0.0000
     7 C6          54.3240    96.6080    26.8010 C.ar         1 B96365   0.0000
     8 C31         57.3590    96.1310    24.6260 C.ar         1 B96365   0.0000
     9 C32         58.0200    97.3030    24.8580 C.ar         1 B96365   0.0000
    10 C33         57.4950    98.2700    25.7310 C.ar         1 B96365   0.0000
    11 C34         56.3010    98.0560    26.3630 C.ar         1 B96365   0.0000
    12 C7          53.6560    95.4390    26.5610 C.ar         1 B96365   0.0000
    13 C8          54.1880    94.4730    25.7060 C.ar         1 B96365   0.0000
    14 N9          55.6620    92.0790    22.4960 N.am         1 B96365   0.0000
    15 C10         55.0210    91.3760    21.4730 C.2          1 B96365   0.0000
    16 C14         54.2570    91.8500    20.4430 C.2          1 B96365   0.0000
    17 C13         53.8390    90.7450    19.6850 C.2          1 B96365   0.0000
    18 N12         54.3200    89.6620    20.2300 N.2          1 B96365   0.0000
    19 N11         55.0520    90.0210    21.3470 N.pl3        1 B96365   0.0000
    20 C15         55.7180    89.1010    22.1610 C.ar         1 B96365   0.0000
    21 C17         53.8880    91.1630    17.2750 C.3          1 B96365   0.0000
    22 C18         52.3950    89.3780    18.1480 C.3          1 B96365   0.0000
    23 C19         51.8270    91.7480    18.6160 C.3          1 B96365   0.0000
    24 C16         52.9850    90.7630    18.4420 C.3          1 B96365   0.0000
    25 C20         56.4310    88.0790    21.5430 C.ar         1 B96365   0.0000
    26 C21         57.0890    87.1560    22.3300 C.ar         1 B96365   0.0000
    27 C22         57.0410    87.2600    23.7160 C.ar         1 B96365   0.0000
    28 C23         56.3280    88.2760    24.3250 C.ar         1 B96365   0.0000
    29 C24         55.6580    89.1980    23.5510 C.ar         1 B96365   0.0000
    30 C25         57.7700    86.2530    24.5580 C.3          1 B96365   0.0000
    31 O41         53.8230    97.5580    27.6520 O.3          1 B96365   0.0000
    32 C42         52.5530    97.2350    28.2240 C.3          1 B96365   0.0000
    33 C43         52.0450    98.4780    28.9690 C.3          1 B96365   0.0000
    34 N44         51.2430    99.3520    28.0750 N.4          1 B96365   1.0000
    35 C45         52.0860    99.8740    26.9750 C.3          1 B96365   0.0000
    36 C46         51.2060   100.7320    26.0670 C.3          1 B96365   0.0000
    37 O47         50.7460   101.8520    26.8280 O.3          1 B96365   0.0000
    38 C48         49.9490   101.4070    27.9280 C.3          1 B96365   0.0000
    39 C49         50.7890   100.5210    28.8500 C.3          1 B96365   0.0000
    40 H1          56.7867    93.3040    24.3412 H            1 B96365   0.0000
    41 H2          57.7503    95.4528    24.0040 H            1 B96365   0.0000
    42 H3          58.8916    97.4756    24.3992 H            1 B96365   0.0000
    43 H4          57.9971    99.1198    25.8914 H            1 B96365   0.0000
    44 H5          55.9351    98.7528    26.9799 H            1 B96365   0.0000
    45 H6          52.7748    95.2743    27.0040 H            1 B96365   0.0000
    46 H7          53.6895    93.6175    25.5662 H            1 B96365   0.0000
    47 H8          56.5976    91.8103    22.7251 H            1 B96365   0.0000
    48 H9          54.0364    92.8085    20.2626 H            1 B96365   0.0000
    49 H10         53.3520    91.1851    16.4311 H            1 B96365   0.0000
    50 H11         54.2747    92.0688    17.4480 H            1 B96365   0.0000
    51 H12         54.6280    90.4968    17.1825 H            1 B96365   0.0000
    52 H13         51.8355    89.4228    17.3204 H            1 B96365   0.0000
    53 H14         53.1370    88.7213    18.0136 H            1 B96365   0.0000
    54 H15         51.8278    89.0869    18.9184 H            1 B96365   0.0000
    55 H16         51.2666    91.7533    17.7878 H            1 B96365   0.0000
    56 H17         51.2666    91.4692    19.3959 H            1 B96365   0.0000
    57 H18         52.1910    92.6652    18.7780 H            1 B96365   0.0000
    58 H19         56.4662    88.0142    20.5457 H            1 B96365   0.0000
    59 H20         57.6013    86.4109    21.9029 H            1 B96365   0.0000
    60 H21         56.2988    88.3413    25.3224 H            1 B96365   0.0000
    61 H22         55.1326    89.9313    23.9826 H            1 B96365   0.0000
    62 H23         57.6358    86.4677    25.5254 H            1 B96365   0.0000
    63 H24         57.4137    85.3384    24.3670 H            1 B96365   0.0000
    64 H25         58.7460    86.2822    24.3423 H            1 B96365   0.0000
    65 H26         52.6516    96.4720    28.8628 H            1 B96365   0.0000
    66 H27         51.9084    96.9840    27.5018 H            1 B96365   0.0000
    67 H28         52.8290    98.9950    29.3126 H            1 B96365   0.0000
    68 H29         51.4749    98.1871    29.7374 H            1 B96365   0.0000
    69 H30         52.4710    99.1130    26.4529 H            1 B96365   0.0000
    70 H31         52.8278   100.4293    27.3510 H            1 B96365   0.0000
    71 H32         50.4252   100.1960    25.7461 H            1 B96365   0.0000
    72 H33         51.7372   101.0503    25.2818 H            1 B96365   0.0000
    73 H34         49.1699   100.8833    27.5833 H            1 B96365   0.0000
    74 H35         49.6176   102.1994    28.4401 H            1 B96365   0.0000
    75 H36         51.5798   101.0337    29.1843 H            1 B96365   0.0000
    76 H37         50.2354   100.2187    29.6260 H            1 B96365   0.0000
    77 H38         50.4596    98.8509    27.7073 H            1 B96365   0.0000
@<TRIPOS>BOND
     1    1    2       2
     2    1    3      am
     3    1   14      am
     4    3    4       1
     5    4    5      ar
     6    4   13      ar
     7    5    6      ar
     8    5    8      ar
     9    6    7      ar
    10    6   11      ar
    11    7   12      ar
    12    7   31       1
    13    8    9      ar
    14    9   10      ar
    15   10   11      ar
    16   12   13      ar
    17   14   15       1
    18   15   16       2
    19   15   19       1
    20   16   17       1
    21   17   18       2
    22   17   24       1
    23   18   19       1
    24   19   20       1
    25   20   25      ar
    26   20   29      ar
    27   21   24       1
    28   22   24       1
    29   23   24       1
    30   25   26      ar
    31   26   27      ar
    32   27   28      ar
    33   27   30       1
    34   28   29      ar
    35   31   32       1
    36   32   33       1
    37   33   34       1
    38   34   35       1
    39   34   39       1
    40   35   36       1
    41   36   37       1
    42   37   38       1
    43   38   39       1
    44    3   40       1
    45    8   41       1
    46    9   42       1
    47   10   43       1
    48   11   44       1
    49   12   45       1
    50   13   46       1
    51   14   47       1
    52   16   48       1
    53   21   49       1
    54   21   50       1
    55   21   51       1
    56   22   52       1
    57   22   53       1
    58   22   54       1
    59   23   55       1
    60   23   56       1
    61   23   57       1
    62   25   58       1
    63   26   59       1
    64   28   60       1
    65   29   61       1
    66   30   62       1
    67   30   63       1
    68   30   64       1
    69   32   65       1
    70   32   66       1
    71   33   67       1
    72   33   68       1
    73   35   69       1
    74   35   70       1
    75   36   71       1
    76   36   72       1
    77   38   73       1
    78   38   74       1
    79   39   75       1
    80   39   76       1
    81   34   77       1
@<TRIPOS>SUBSTRUCTURE
     1 B96365      1 GROUP             4 B     B96     0 **** B96 B 365
