@<TRIPOS>MOLECULE
3zdf_NAD_2_ligand
   70    74     1     0     0
SMALL
NO_CHARGES


@<TRIPOS>ATOM
     1 PN          35.4720   -16.2290     5.7440 P.3          1 NAD1001   0.0000
     2 O1N         35.6160   -16.4620     4.2260 O.co2        1 NAD1001   0.0000
     3 O2N         34.5730   -16.9630     6.7230 O.co2        1 NAD1001  -1.0000
     4 O3          36.8470   -16.0780     6.5260 O.3          1 NAD1001   0.0000
     5 O5D         34.9520   -14.6850     5.8280 O.3          1 NAD1001   0.0000
     6 C5D         35.5430   -13.7180     4.9770 C.3          1 NAD1001   0.0000
     7 C4D         34.6310   -12.5130     4.8910 C.3          1 NAD1001   0.0000
     8 O4D         33.3160   -12.8450     4.3730 O.3          1 NAD1001   0.0000
     9 C3D         34.4010   -11.8870     6.2330 C.3          1 NAD1001   0.0000
    10 O3D         34.2790   -10.5130     5.9640 O.3          1 NAD1001   0.0000
    11 C2D         33.0540   -12.4350     6.7140 C.3          1 NAD1001   0.0000
    12 O2D         32.3710   -11.5550     7.6140 O.3          1 NAD1001   0.0000
    13 C1D         32.3250   -12.5300     5.3740 C.3          1 NAD1001   0.0000
    14 N1N         31.1990   -13.4510     5.3690 N.ar         1 NAD1001   1.0000
    15 C6N         30.0420   -13.0060     4.8680 C.ar         1 NAD1001   0.0000
    16 C5N         28.9430   -13.8280     4.8470 C.ar         1 NAD1001   0.0000
    17 C4N         29.0440   -15.1230     5.3360 C.ar         1 NAD1001   0.0000
    18 C3N         30.2760   -15.5590     5.8280 C.ar         1 NAD1001   0.0000
    19 C2N         31.3370   -14.6830     5.8340 C.ar         1 NAD1001   0.0000
    20 C7N         30.4680   -16.9430     6.4140 C.2          1 NAD1001   0.0000
    21 O7N         29.5025   -17.5774     6.8118 O.2          1 NAD1001   0.0000
    22 PA          38.1470   -16.9590     6.3790 P.3          1 NAD1001   0.0000
    23 O1A         38.9650   -16.3520     7.4870 O.co2        1 NAD1001   0.0000
    24 O2A         37.8960   -18.4330     6.1470 O.co2        1 NAD1001  -1.0000
    25 O5B         38.7180   -16.4220     4.9710 O.3          1 NAD1001   0.0000
    26 C5B         39.5870   -15.2630     4.9210 C.3          1 NAD1001   0.0000
    27 C4B         40.6720   -15.5190     3.8750 C.3          1 NAD1001   0.0000
    28 O4B         41.2740   -14.2700     3.4620 O.3          1 NAD1001   0.0000
    29 C3B         41.7670   -16.4460     4.4410 C.3          1 NAD1001   0.0000
    30 O3B         42.1560   -17.3380     3.4060 O.3          1 NAD1001   0.0000
    31 C2B         42.8970   -15.4980     4.8220 C.3          1 NAD1001   0.0000
    32 O2B         44.1930   -16.0840     4.7870 O.3          1 NAD1001   0.0000
    33 C1B         42.7090   -14.4620     3.6970 C.3          1 NAD1001   0.0000
    34 N9A         43.3090   -13.1440     3.9530 N.pl3        1 NAD1001   0.0000
    35 C4A         43.9870   -12.4610     3.0140 C.ar         1 NAD1001   0.0000
    36 N3A         44.3840   -12.6910     1.7180 N.ar         1 NAD1001   0.0000
    37 C2A         45.0730   -11.7280     1.0830 C.ar         1 NAD1001   0.0000
    38 N1A         45.4390   -10.5480     1.6620 N.ar         1 NAD1001   0.0000
    39 C6A         45.1240   -10.2160     2.9480 C.ar         1 NAD1001   0.0000
    40 C5A         44.3350   -11.1930     3.7100 C.ar         1 NAD1001   0.0000
    41 N7A         43.8540   -11.2430     4.9800 N.2          1 NAD1001   0.0000
    42 C8A         43.2120   -12.4300     5.1090 C.2          1 NAD1001   0.0000
    43 N6A         45.4620    -9.0530     3.5740 N.pl3        1 NAD1001   0.0000
    44 N7N         31.7117   -17.4034     6.5105 N.am         1 NAD1001   0.0000
    45 H5D1        35.6706   -14.1075     4.0649 H            1 NAD1001   0.0000
    46 H5D2        36.4294   -13.4416     5.3484 H            1 NAD1001   0.0000
    47 H4D         35.0514   -11.8347     4.2883 H            1 NAD1001   0.0000
    48 H3D         35.1418   -12.0836     6.8753 H            1 NAD1001   0.0000
    49 H5          34.1218   -10.0186     6.8189 H            1 NAD1001   0.0000
    50 H2D         33.1656   -13.3414     7.1215 H            1 NAD1001   0.0000
    51 H7          31.3835   -11.6785     7.5158 H            1 NAD1001   0.0000
    52 H1D         31.9672   -11.6202     5.1638 H            1 NAD1001   0.0000
    53 H6N         29.9774   -12.0750     4.5088 H            1 NAD1001   0.0000
    54 H5N         28.0738   -13.4955     4.4812 H            1 NAD1001   0.0000
    55 H4N         28.2505   -15.7316     5.3360 H            1 NAD1001   0.0000
    56 H2N         32.2217   -14.9800     6.1934 H            1 NAD1001   0.0000
    57 H5B1        40.0083   -15.1178     5.8162 H            1 NAD1001   0.0000
    58 H5B2        39.0569   -14.4540     4.6669 H            1 NAD1001   0.0000
    59 H4B         40.2566   -15.9575     3.0780 H            1 NAD1001   0.0000
    60 H3B         41.4347   -16.9471     5.2400 H            1 NAD1001   0.0000
    61 H17         42.5100   -16.8149     2.6307 H            1 NAD1001   0.0000
    62 H2B         42.7223   -15.0833     5.7150 H            1 NAD1001   0.0000
    63 H19         44.1184   -17.0418     4.5093 H            1 NAD1001   0.0000
    64 H1B         43.1149   -14.8322     2.8614 H            1 NAD1001   0.0000
    65 H2A         45.3328   -11.8853     0.1302 H            1 NAD1001   0.0000
    66 H8A         42.7362   -12.7369     5.9333 H            1 NAD1001   0.0000
    67 H6A1        45.1860    -8.8972     4.5224 H            1 NAD1001   0.0000
    68 H6A2        45.9859    -8.3558     3.0847 H            1 NAD1001   0.0000
    69 H7N1        31.8858   -18.2852     6.9488 H            1 NAD1001   0.0000
    70 H7N2        32.4729   -16.8678     6.1447 H            1 NAD1001   0.0000
@<TRIPOS>BOND
     1    1    2      ar
     2    1    3      ar
     3    1    4       1
     4    1    5       1
     5    4   22       1
     6    5    6       1
     7    6    7       1
     8    7    8       1
     9    7    9       1
    10    8   13       1
    11    9   10       1
    12    9   11       1
    13   11   12       1
    14   11   13       1
    15   13   14       1
    16   14   15      ar
    17   14   19      ar
    18   15   16      ar
    19   16   17      ar
    20   17   18      ar
    21   18   19      ar
    22   18   20       1
    23   20   21       2
    24   20   44      am
    25   22   23      ar
    26   22   24      ar
    27   22   25       1
    28   25   26       1
    29   26   27       1
    30   27   28       1
    31   27   29       1
    32   28   33       1
    33   29   30       1
    34   29   31       1
    35   31   32       1
    36   31   33       1
    37   33   34       1
    38   34   35       1
    39   34   42       1
    40   35   36      ar
    41   35   40      ar
    42   36   37      ar
    43   37   38      ar
    44   38   39      ar
    45   39   40      ar
    46   39   43       1
    47   40   41       1
    48   41   42       2
    49   44   70       1
    50    6   45       1
    51    6   46       1
    52    7   47       1
    53    9   48       1
    54   10   49       1
    55   11   50       1
    56   12   51       1
    57   13   52       1
    58   15   53       1
    59   16   54       1
    60   17   55       1
    61   19   56       1
    62   44   69       1
    63   26   57       1
    64   26   58       1
    65   27   59       1
    66   29   60       1
    67   30   61       1
    68   31   62       1
    69   32   63       1
    70   33   64       1
    71   37   65       1
    72   42   66       1
    73   43   67       1
    74   43   68       1
@<TRIPOS>SUBSTRUCTURE
     1 NAD1001     1 GROUP             4 B     NAD     0 **** NAD B1001
