@<TRIPOS>MOLECULE
2j09_FAD_1_ligand
   84    89     1     0     0
SMALL
NO_CHARGES


@<TRIPOS>ATOM
     1 PA          25.0120    16.8140    38.5000 P.3          1 FAD1421   0.0000
     2 O1A         24.1200    16.1420    37.4830 O.co2        1 FAD1421   0.0000
     3 O2A         24.2360    17.3050    39.6970 O.co2        1 FAD1421  -1.0000
     4 O5B         25.7710    18.0550    37.7830 O.3          1 FAD1421   0.0000
     5 C5B         26.1830    18.0230    36.4070 C.3          1 FAD1421   0.0000
     6 C4B         27.7120    18.1980    36.3430 C.3          1 FAD1421   0.0000
     7 O4B         28.1080    19.4380    36.8950 O.3          1 FAD1421   0.0000
     8 C3B         28.5200    17.1780    37.1850 C.3          1 FAD1421   0.0000
     9 O3B         28.5810    15.9200    36.5620 O.3          1 FAD1421   0.0000
    10 C2B         29.8750    17.8580    37.3970 C.3          1 FAD1421   0.0000
    11 O2B         30.6350    17.8720    36.1850 O.3          1 FAD1421   0.0000
    12 C1B         29.3570    19.3020    37.5820 C.3          1 FAD1421   0.0000
    13 N9A         29.1000    19.6040    38.9920 N.pl3        1 FAD1421   0.0000
    14 C8A         27.9900    19.2880    39.7550 C.2          1 FAD1421   0.0000
    15 N7A         28.2410    19.7730    41.0030 N.2          1 FAD1421   0.0000
    16 C5A         29.4760    20.3450    41.0610 C.ar         1 FAD1421   0.0000
    17 C6A         30.2130    21.0180    42.0520 C.ar         1 FAD1421   0.0000
    18 N6A         29.8760    21.0920    43.3620 N.pl3        1 FAD1421   0.0000
    19 N1A         31.4770    21.4260    41.7330 N.ar         1 FAD1421   0.0000
    20 C2A         31.9730    21.2840    40.4620 C.ar         1 FAD1421   0.0000
    21 N3A         31.2390    20.6990    39.4640 N.ar         1 FAD1421   0.0000
    22 C4A         30.0080    20.2440    39.7780 C.ar         1 FAD1421   0.0000
    23 N1          33.2970    16.4040    41.0900 N.2          1 FAD1421   0.0000
    24 C2          34.1150    15.7350    40.2320 C.2          1 FAD1421   0.0000
    25 O2          33.7000    15.5840    39.1060 O.2          1 FAD1421   0.0000
    26 N3          35.3900    15.3000    40.5900 N.pl3        1 FAD1421   0.0000
    27 C4          35.8030    15.4590    41.8820 C.2          1 FAD1421   0.0000
    28 O4          36.8930    14.9770    42.1770 O.2          1 FAD1421   0.0000
    29 C4X         34.9030    15.9970    42.8400 C.2          1 FAD1421   0.0000
    30 N5          35.2680    16.0970    44.1650 N.2          1 FAD1421   0.0000
    31 C5X         34.3960    16.7370    45.0520 C.ar         1 FAD1421   0.0000
    32 C6          34.7800    16.8770    46.4080 C.ar         1 FAD1421   0.0000
    33 C7          33.9620    17.5520    47.3170 C.ar         1 FAD1421   0.0000
    34 C7M         34.4180    17.6490    48.7730 C.3          1 FAD1421   0.0000
    35 C8          32.7070    18.0350    46.8820 C.ar         1 FAD1421   0.0000
    36 C8M         31.7330    18.7690    47.7900 C.3          1 FAD1421   0.0000
    37 C9          32.3250    17.9300    45.5280 C.ar         1 FAD1421   0.0000
    38 C9A         33.1670    17.2930    44.6070 C.ar         1 FAD1421   0.0000
    39 N10         32.7460    17.1150    43.3040 N.pl3        1 FAD1421   0.0000
    40 C10         33.6540    16.5100    42.4260 C.2          1 FAD1421   0.0000
    41 C1'         31.6560    17.9820    42.7280 C.3          1 FAD1421   0.0000
    42 C2'         30.3000    17.2510    42.6570 C.3          1 FAD1421   0.0000
    43 O2'         29.8890    16.6770    43.9040 O.3          1 FAD1421   0.0000
    44 C3'         30.2540    16.1280    41.6370 C.3          1 FAD1421   0.0000
    45 O3'         30.6220    16.5730    40.3430 O.3          1 FAD1421   0.0000
    46 C4'         28.8210    15.5690    41.6060 C.3          1 FAD1421   0.0000
    47 O4'         28.4460    14.8470    42.7740 O.3          1 FAD1421   0.0000
    48 C5'         28.6370    14.7390    40.3540 C.3          1 FAD1421   0.0000
    49 O5'         27.3270    14.1830    40.3360 O.3          1 FAD1421   0.0000
    50 P           26.4390    14.3200    39.0290 P.3          1 FAD1421   0.0000
    51 O1P         27.2380    13.8910    37.8000 O.co2        1 FAD1421   0.0000
    52 O2P         25.1670    13.5400    39.2590 O.co2        1 FAD1421  -1.0000
    53 O3P         26.2220    15.9130    39.0180 O.3          1 FAD1421   0.0000
    54 H5B1        25.7384    18.7653    35.9056 H            1 FAD1421   0.0000
    55 H5B2        25.9277    17.1460    35.9999 H            1 FAD1421   0.0000
    56 H4B         28.0106    18.1500    35.3898 H            1 FAD1421   0.0000
    57 H3B         28.0733    17.0727    38.0735 H            1 FAD1421   0.0000
    58 H5          28.1678    15.2321    37.1587 H            1 FAD1421   0.0000
    59 H2B         30.3814    17.5084    38.1852 H            1 FAD1421   0.0000
    60 H7          30.3948    17.0744    35.6317 H            1 FAD1421   0.0000
    61 H1B         30.0211    19.9512    37.2112 H            1 FAD1421   0.0000
    62 H8A         27.1701    18.8023    39.4520 H            1 FAD1421   0.0000
    63 H6A1        30.4596    21.5933    44.0009 H            1 FAD1421   0.0000
    64 H6A2        29.0437    20.6453    43.6902 H            1 FAD1421   0.0000
    65 H2A         32.8941    21.6160    40.2586 H            1 FAD1421   0.0000
    66 H13         35.9923    14.8785    39.9121 H            1 FAD1421   0.0000
    67 H14         35.6473    16.4879    46.7184 H            1 FAD1421   0.0000
    68 H7M1        33.7376    18.1558    49.3023 H            1 FAD1421   0.0000
    69 H7M2        34.5184    16.7294    49.1528 H            1 FAD1421   0.0000
    70 H7M3        35.2962    18.1253    48.8162 H            1 FAD1421   0.0000
    71 H8M1        30.9148    19.0160    47.2708 H            1 FAD1421   0.0000
    72 H8M2        31.4770    18.1757    48.5532 H            1 FAD1421   0.0000
    73 H8M3        32.1666    19.5980    48.1431 H            1 FAD1421   0.0000
    74 H21         31.4515    18.3110    45.2250 H            1 FAD1421   0.0000
    75 H1'1        31.9203    18.2590    41.8042 H            1 FAD1421   0.0000
    76 H1'2        31.5536    18.7937    43.3030 H            1 FAD1421   0.0000
    77 H2'         29.6091    17.9243    42.3939 H            1 FAD1421   0.0000
    78 H25         29.3340    15.8636    43.7297 H            1 FAD1421   0.0000
    79 H3'         30.8805    15.4027    41.9225 H            1 FAD1421   0.0000
    80 H27         31.6098    16.4722    40.2242 H            1 FAD1421   0.0000
    81 H4'         28.2023    16.3512    41.5332 H            1 FAD1421   0.0000
    82 H29         28.6774    13.8812    42.6575 H            1 FAD1421   0.0000
    83 H5'1        29.3117    14.0010    40.3422 H            1 FAD1421   0.0000
    84 H5'2        28.7632    15.3189    39.5491 H            1 FAD1421   0.0000
@<TRIPOS>BOND
     1    1    2      ar
     2    1    3      ar
     3    1    4       1
     4    1   53       1
     5    4    5       1
     6    5    6       1
     7    6    7       1
     8    6    8       1
     9    7   12       1
    10    8    9       1
    11    8   10       1
    12   10   11       1
    13   10   12       1
    14   12   13       1
    15   13   14       1
    16   13   22       1
    17   14   15       2
    18   15   16       1
    19   16   17      ar
    20   16   22      ar
    21   17   18       1
    22   17   19      ar
    23   19   20      ar
    24   20   21      ar
    25   21   22      ar
    26   23   24       1
    27   23   40       2
    28   24   25       2
    29   24   26       1
    30   26   27       1
    31   27   28       2
    32   27   29       1
    33   29   30       2
    34   29   40       1
    35   30   31       1
    36   31   32      ar
    37   31   38      ar
    38   32   33      ar
    39   33   34       1
    40   33   35      ar
    41   35   36       1
    42   35   37      ar
    43   37   38      ar
    44   38   39       1
    45   39   40       1
    46   39   41       1
    47   41   42       1
    48   42   43       1
    49   42   44       1
    50   44   45       1
    51   44   46       1
    52   46   47       1
    53   46   48       1
    54   48   49       1
    55   49   50       1
    56   50   51      ar
    57   50   52      ar
    58   50   53       1
    59   48   84       1
    60    5   54       1
    61    5   55       1
    62    6   56       1
    63    8   57       1
    64    9   58       1
    65   10   59       1
    66   11   60       1
    67   12   61       1
    68   14   62       1
    69   18   63       1
    70   18   64       1
    71   20   65       1
    72   26   66       1
    73   32   67       1
    74   34   68       1
    75   34   69       1
    76   34   70       1
    77   36   71       1
    78   36   72       1
    79   36   73       1
    80   37   74       1
    81   41   75       1
    82   41   76       1
    83   42   77       1
    84   43   78       1
    85   44   79       1
    86   45   80       1
    87   46   81       1
    88   47   82       1
    89   48   83       1
@<TRIPOS>SUBSTRUCTURE
     1 FAD1421     1 GROUP             4 A     FAD     0 **** FAD A1421
