@<TRIPOS>MOLECULE
3te4_ACO_1_ligand
   85    87     1     0     0
SMALL
NO_CHARGES


@<TRIPOS>ATOM
     1 N1A         14.2560    56.2480    18.6470 N.ar         1 ACO231   0.0000
     2 C2A         15.0590    55.3430    19.2730 C.ar         1 ACO231   0.0000
     3 N3A         14.6110    54.1610    19.7320 N.ar         1 ACO231   0.0000
     4 C4A         13.2960    53.8660    19.6730 C.ar         1 ACO231   0.0000
     5 C5A         12.3800    54.7960    19.0150 C.ar         1 ACO231   0.0000
     6 C6A         12.9340    56.0660    18.5500 C.ar         1 ACO231   0.0000
     7 N6A         12.1520    57.0070    17.9920 N.pl3        1 ACO231   0.0000
     8 N7A         11.1410    54.2540    19.1370 N.2          1 ACO231   0.0000
     9 C8A         11.2810    53.0800    19.7860 C.2          1 ACO231   0.0000
    10 N9A         12.5750    52.8230    20.0630 N.pl3        1 ACO231   0.0000
    11 C1B         13.2190    51.7120    20.7980 C.3          1 ACO231   0.0000
    12 C2B         12.2650    50.6040    21.1470 C.3          1 ACO231   0.0000
    13 O2B         12.6780    50.0480    22.4030 O.3          1 ACO231   0.0000
    14 C3B         12.5260    49.6450    19.9980 C.3          1 ACO231   0.0000
    15 O3B         12.1070    48.3300    20.2660 O.3          1 ACO231   0.0000
    16 P3B         10.6340    47.8250    19.9280 P.3          1 ACO231   0.0000
    17 O7A         10.1410    48.5620    18.7110 O.co2        1 ACO231   0.0000
    18 O8A         10.8090    46.3630    19.7220 O.co2        1 ACO231  -1.0000
    19 O9A          9.7700    48.1690    21.0850 O.co2        1 ACO231  -1.0000
    20 C4B         14.0350    49.7300    19.8430 C.3          1 ACO231   0.0000
    21 O4B         14.2300    51.1340    19.9580 O.3          1 ACO231   0.0000
    22 C5B         14.6270    49.2030    18.5400 C.3          1 ACO231   0.0000
    23 O5B         13.8750    49.7020    17.4240 O.3          1 ACO231   0.0000
    24 P1A         13.9620    48.8950    16.0390 P.3          1 ACO231   0.0000
    25 O1A         12.9750    49.5730    15.1430 O.co2        1 ACO231   0.0000
    26 O2A         13.9110    47.4200    16.2660 O.co2        1 ACO231  -1.0000
    27 O3A         15.4800    49.2010    15.5250 O.3          1 ACO231   0.0000
    28 P2A         15.9770    50.5190    14.7420 P.3          1 ACO231   0.0000
    29 O4A         15.6790    50.3820    13.3020 O.co2        1 ACO231   0.0000
    30 O5A         15.5150    51.7120    15.4760 O.co2        1 ACO231  -1.0000
    31 O6A         17.5600    50.3910    14.8890 O.3          1 ACO231   0.0000
    32 CBP         19.6280    50.5040    16.1030 C.3          1 ACO231   0.0000
    33 CCP         18.2160    49.9280    16.0860 C.3          1 ACO231   0.0000
    34 CDP         20.3060    50.2780    14.7240 C.3          1 ACO231   0.0000
    35 CEP         20.3830    49.6730    17.1530 C.3          1 ACO231   0.0000
    36 CAP         19.6250    52.0150    16.4170 C.3          1 ACO231   0.0000
    37 OAP         19.1490    52.2440    17.7390 O.3          1 ACO231   0.0000
    38 C9P         20.9940    52.6740    16.3100 C.2          1 ACO231   0.0000
    39 O9P         21.4350    53.0490    15.1870 O.2          1 ACO231   0.0000
    40 N8P         21.6910    52.7500    17.4700 N.am         1 ACO231   0.0000
    41 C7P         22.9930    53.4080    17.5400 C.3          1 ACO231   0.0000
    42 C6P         24.1070    52.5970    16.8650 C.3          1 ACO231   0.0000
    43 C5P         24.3420    51.2450    17.5080 C.2          1 ACO231   0.0000
    44 O5P         24.3760    51.1010    18.7360 O.2          1 ACO231   0.0000
    45 N4P         24.4630    50.2270    16.6290 N.am         1 ACO231   0.0000
    46 C3P         24.7410    48.8270    17.0010 C.3          1 ACO231   0.0000
    47 C2P         26.1870    48.6470    17.4910 C.3          1 ACO231   0.0000
    48 S1P         26.6480    46.9340    17.4550 S.3          1 ACO231   0.0000
    49 C           26.9830    46.6870    15.7670 C.2          1 ACO231   0.0000
    50 O           27.0170    47.6390    14.9610 O.2          1 ACO231   0.0000
    51 CH3         27.3290    45.3060    15.2310 C.3          1 ACO231   0.0000
    52 H2A         16.0255    55.5678    19.3968 H            1 ACO231   0.0000
    53 H6A1        11.1650    56.8612    17.9243 H            1 ACO231   0.0000
    54 H6A2        12.5575    57.8526    17.6447 H            1 ACO231   0.0000
    55 H8A         10.5216    52.4770    20.0305 H            1 ACO231   0.0000
    56 H1B         13.6407    52.0647    21.6333 H            1 ACO231   0.0000
    57 H2B         11.3155    50.9172    21.1678 H            1 ACO231   0.0000
    58 H7          11.8789    49.6967    22.8909 H            1 ACO231   0.0000
    59 H3B         12.0803    49.9806    19.1681 H            1 ACO231   0.0000
    60 H4B         14.4735    49.2706    20.6154 H            1 ACO231   0.0000
    61 H5B1        14.5943    48.2035    18.5414 H            1 ACO231   0.0000
    62 H5B2        15.5770    49.5053    18.4614 H            1 ACO231   0.0000
    63 HCP1        18.2571    48.9288    16.0855 H            1 ACO231   0.0000
    64 HCP2        17.7124    50.2405    16.8914 H            1 ACO231   0.0000
    65 HDP1        21.2310    50.6575    14.7412 H            1 ACO231   0.0000
    66 HDP2        20.3514    49.2977    14.5315 H            1 ACO231   0.0000
    67 HDP3        19.7721    50.7332    14.0115 H            1 ACO231   0.0000
    68 HEP1        21.3265    49.9976    17.2195 H            1 ACO231   0.0000
    69 HEP2        19.9337    49.7703    18.0411 H            1 ACO231   0.0000
    70 HEP3        20.3799    48.7106    16.8815 H            1 ACO231   0.0000
    71 HAP         19.0059    52.4688    15.7761 H            1 ACO231   0.0000
    72 H21         18.1564    52.3642    17.7198 H            1 ACO231   0.0000
    73 H8P         21.3041    52.3454    18.2986 H            1 ACO231   0.0000
    74 H7P1        23.2325    53.5407    18.5018 H            1 ACO231   0.0000
    75 H7P2        22.9262    54.2972    17.0874 H            1 ACO231   0.0000
    76 H6P1        24.9561    53.1230    16.9139 H            1 ACO231   0.0000
    77 H6P2        23.8585    52.4534    15.9071 H            1 ACO231   0.0000
    78 H4P         24.3566    50.4372    15.6571 H            1 ACO231   0.0000
    79 H3P1        24.5943    48.2438    16.2020 H            1 ACO231   0.0000
    80 H3P2        24.1147    48.5551    17.7316 H            1 ACO231   0.0000
    81 H2P1        26.2616    48.9880    18.4281 H            1 ACO231   0.0000
    82 H2P2        26.8024    49.1657    16.8975 H            1 ACO231   0.0000
    83 HH31        27.4879    45.3612    14.2453 H            1 ACO231   0.0000
    84 HH32        28.1551    44.9701    15.6835 H            1 ACO231   0.0000
    85 HH33        26.5714    44.6788    15.4119 H            1 ACO231   0.0000
@<TRIPOS>BOND
     1    1    2      ar
     2    1    6      ar
     3    2    3      ar
     4    3    4      ar
     5    4    5      ar
     6    4   10       1
     7    5    6      ar
     8    5    8       1
     9    6    7       1
    10    8    9       2
    11    9   10       1
    12   10   11       1
    13   11   12       1
    14   11   21       1
    15   12   13       1
    16   12   14       1
    17   14   15       1
    18   14   20       1
    19   15   16       1
    20   16   17      ar
    21   16   18      ar
    22   16   19      ar
    23   20   21       1
    24   20   22       1
    25   22   23       1
    26   23   24       1
    27   24   25      ar
    28   24   26      ar
    29   24   27       1
    30   27   28       1
    31   28   29      ar
    32   28   30      ar
    33   28   31       1
    34   31   33       1
    35   32   33       1
    36   32   34       1
    37   32   35       1
    38   32   36       1
    39   36   37       1
    40   36   38       1
    41   38   39       2
    42   38   40      am
    43   40   41       1
    44   41   42       1
    45   42   43       1
    46   43   44       2
    47   43   45      am
    48   45   46       1
    49   46   47       1
    50   47   48       1
    51   48   49       1
    52   49   50       2
    53   49   51       1
    54    2   52       1
    55    7   53       1
    56    7   54       1
    57    9   55       1
    58   11   56       1
    59   12   57       1
    60   13   58       1
    61   14   59       1
    62   51   85       1
    63   51   84       1
    64   20   60       1
    65   22   61       1
    66   22   62       1
    67   51   83       1
    68   47   82       1
    69   33   63       1
    70   33   64       1
    71   34   65       1
    72   34   66       1
    73   34   67       1
    74   35   68       1
    75   35   69       1
    76   35   70       1
    77   36   71       1
    78   37   72       1
    79   40   73       1
    80   41   74       1
    81   41   75       1
    82   42   76       1
    83   42   77       1
    84   45   78       1
    85   46   79       1
    86   46   80       1
    87   47   81       1
@<TRIPOS>SUBSTRUCTURE
     1 ACO231      1 GROUP             4 A     ACO     0 **** ACO A 231
