@<TRIPOS>MOLECULE
4adc_PLP_1_ligand
   25    25     1     0     0
SMALL
NO_CHARGES


@<TRIPOS>ATOM
     1 N1          -9.0530    42.6610    34.6780 N.ar         1 PLP1403   1.0000
     2 C2         -10.3390    42.7150    34.9870 C.ar         1 PLP1403   0.0000
     3 C2A        -11.0900    44.0130    35.0160 C.3          1 PLP1403   0.0000
     4 C3         -11.0050    41.4570    35.2880 C.ar         1 PLP1403   0.0000
     5 O3         -12.3280    41.4830    35.5510 O.3          1 PLP1403   0.0000
     6 C4         -10.2660    40.1890    35.1600 C.ar         1 PLP1403   0.0000
     7 C4A        -10.9590    38.9370    35.4690 C.2          1 PLP1403   0.0000
     8 O4A        -11.8870    39.0830    36.2930 O.2          1 PLP1403   0.0000
     9 C5          -8.8310    40.2490    34.8240 C.ar         1 PLP1403   0.0000
    10 C6          -8.3090    41.5240    34.6260 C.ar         1 PLP1403   0.0000
    11 C5A         -7.9560    38.9750    34.7300 C.3          1 PLP1403   0.0000
    12 O4P         -8.4380    38.3220    33.5800 O.3          1 PLP1403   0.0000
    13 P           -8.0770    36.8240    33.2760 P.3          1 PLP1403   0.0000
    14 O1P         -9.0320    36.0400    34.1870 O.co2        1 PLP1403   0.0000
    15 O2P         -8.4270    36.6240    31.7860 O.co2        1 PLP1403  -1.0000
    16 O3P         -6.7000    36.4820    33.5200 O.co2        1 PLP1403  -1.0000
    17 H2A1       -12.0419    43.8417    35.2700 H            1 PLP1403   0.0000
    18 H2A2       -10.6712    44.6255    35.6864 H            1 PLP1403   0.0000
    19 H2A3       -11.0576    44.4371    34.1110 H            1 PLP1403   0.0000
    20 H4         -12.8128    40.6340    35.7612 H            1 PLP1403   0.0000
    21 H4A        -10.7150    38.0564    35.0628 H            1 PLP1403   0.0000
    22 H6          -7.3311    41.6087    34.4346 H            1 PLP1403   0.0000
    23 H5A1        -8.0730    38.4016    35.5409 H            1 PLP1403   0.0000
    24 H5A2        -6.9902    39.2128    34.6264 H            1 PLP1403   0.0000
    25 H9          -8.5929    43.5233    34.4664 H            1 PLP1403   0.0000
@<TRIPOS>BOND
     1    1    2      ar
     2    1   10      ar
     3    2    3       1
     4    2    4      ar
     5    4    5       1
     6    4    6      ar
     7    6    7       1
     8    6    9      ar
     9    7    8       2
    10    9   10      ar
    11    9   11       1
    12   11   12       1
    13   12   13       1
    14   13   14      ar
    15   13   15      ar
    16   13   16      ar
    17    3   17       1
    18    3   18       1
    19    3   19       1
    20    5   20       1
    21    7   21       1
    22   10   22       1
    23   11   23       1
    24   11   24       1
    25    1   25       1
@<TRIPOS>SUBSTRUCTURE
     1 PLP1403     1 GROUP             4 A     PLP     0 **** PLP A1403
