@<TRIPOS>MOLECULE
3em0_CHD_6_ligand
   68    71     1     0     0
SMALL
NO_CHARGES


@<TRIPOS>ATOM
     1 C1         -35.6310   -16.7690    -7.5650 C.3          1 CHD151   0.0000
     2 C2         -35.9910   -16.9500    -9.0520 C.3          1 CHD151   0.0000
     3 C3         -36.8450   -18.2050    -9.2860 C.3          1 CHD151   0.0000
     4 O3         -37.1100   -18.3620   -10.6930 O.3          1 CHD151   0.0000
     5 C4         -36.0760   -19.4290    -8.7800 C.3          1 CHD151   0.0000
     6 C5         -35.7310   -19.2910    -7.2760 C.3          1 CHD151   0.0000
     7 C6         -35.0280   -20.5880    -6.8070 C.3          1 CHD151   0.0000
     8 C7         -33.5480   -20.6910    -7.2450 C.3          1 CHD151   0.0000
     9 O7         -33.4310   -20.9340    -8.6530 O.3          1 CHD151   0.0000
    10 C8         -32.7530   -19.4410    -6.8440 C.3          1 CHD151   0.0000
    11 C9         -33.4300   -18.1030    -7.3170 C.3          1 CHD151   0.0000
    12 C10        -34.9420   -17.9840    -6.8960 C.3          1 CHD151   0.0000
    13 C11        -32.5920   -16.8470    -6.9360 C.3          1 CHD151   0.0000
    14 C12        -31.0840   -16.9820    -7.2710 C.3          1 CHD151   0.0000
    15 O12        -30.8750   -16.7500    -8.6790 O.3          1 CHD151   0.0000
    16 C13        -30.4630   -18.3330    -6.7860 C.3          1 CHD151   0.0000
    17 C14        -31.2970   -19.5020    -7.3480 C.3          1 CHD151   0.0000
    18 C15        -30.4670   -20.7370    -6.9630 C.3          1 CHD151   0.0000
    19 C16        -29.0300   -20.2710    -7.2780 C.3          1 CHD151   0.0000
    20 C17        -29.1060   -18.7230    -7.4560 C.3          1 CHD151   0.0000
    21 C18        -30.3430   -18.3550    -5.2380 C.3          1 CHD151   0.0000
    22 C19        -35.0550   -17.7910    -5.3720 C.3          1 CHD151   0.0000
    23 C20        -27.8570   -17.9960    -6.9050 C.3          1 CHD151   0.0000
    24 C21        -27.8730   -16.4940    -7.2290 C.3          1 CHD151   0.0000
    25 C22        -26.5550   -18.6040    -7.4360 C.3          1 CHD151   0.0000
    26 C23        -25.3730   -18.2280    -6.5360 C.3          1 CHD151   0.0000
    27 O25        -23.6720   -19.8590    -6.5060 O.co2        1 CHD151   0.0000
    28 C24        -24.0800   -18.8200    -7.0620 C.2          1 CHD151   0.0000
    29 O26        -23.5180   -18.2160    -8.0030 O.co2        1 CHD151  -1.0000
    30 H1         -36.4753   -16.5786    -7.0641 H            1 CHD151   0.0000
    31 H2         -35.0149   -15.9849    -7.4899 H            1 CHD151   0.0000
    32 H3         -35.1466   -17.0302    -9.5816 H            1 CHD151   0.0000
    33 H4         -36.5031   -16.1484    -9.3605 H            1 CHD151   0.0000
    34 H5         -37.7085   -18.1214    -8.7887 H            1 CHD151   0.0000
    35 H6         -36.3877   -18.9148   -11.1086 H            1 CHD151   0.0000
    36 H7         -35.2281   -19.5204    -9.3022 H            1 CHD151   0.0000
    37 H8         -36.6384   -20.2452    -8.9121 H            1 CHD151   0.0000
    38 H9         -36.6026   -19.2483    -6.7877 H            1 CHD151   0.0000
    39 H10        -35.5237   -21.3696    -7.1856 H            1 CHD151   0.0000
    40 H11        -35.0641   -20.6224    -5.8082 H            1 CHD151   0.0000
    41 H12        -33.1448   -21.4722    -6.7683 H            1 CHD151   0.0000
    42 H13        -32.5990   -21.4589    -8.8327 H            1 CHD151   0.0000
    43 H14        -32.7198   -19.4190    -5.8448 H            1 CHD151   0.0000
    44 H15        -33.4286   -18.1369    -8.3164 H            1 CHD151   0.0000
    45 H16        -32.6847   -16.6915    -5.9525 H            1 CHD151   0.0000
    46 H17        -32.9573   -16.0603    -7.4337 H            1 CHD151   0.0000
    47 H18        -30.6097   -16.2504    -6.7812 H            1 CHD151   0.0000
    48 H19        -29.9655   -16.3592    -8.8210 H            1 CHD151   0.0000
    49 H20        -31.3070   -19.4292    -8.3453 H            1 CHD151   0.0000
    50 H21        -30.7204   -21.5313    -7.5152 H            1 CHD151   0.0000
    51 H22        -30.5728   -20.9577    -5.9934 H            1 CHD151   0.0000
    52 H23        -28.7022   -20.7013    -8.1191 H            1 CHD151   0.0000
    53 H24        -28.4165   -20.5038    -6.5234 H            1 CHD151   0.0000
    54 H25        -29.1742   -18.5256    -8.4340 H            1 CHD151   0.0000
    55 H26        -29.9447   -19.2248    -4.9469 H            1 CHD151   0.0000
    56 H27        -29.7561   -17.6028    -4.9384 H            1 CHD151   0.0000
    57 H28        -31.2509   -18.2516    -4.8318 H            1 CHD151   0.0000
    58 H29        -34.6188   -18.5604    -4.9053 H            1 CHD151   0.0000
    59 H30        -34.5999   -16.9403    -5.1091 H            1 CHD151   0.0000
    60 H31        -36.0197   -17.7471    -5.1122 H            1 CHD151   0.0000
    61 H32        -27.8584   -18.0952    -5.9099 H            1 CHD151   0.0000
    62 H33        -27.0509   -16.0638    -6.8562 H            1 CHD151   0.0000
    63 H34        -27.8951   -16.3671    -8.2207 H            1 CHD151   0.0000
    64 H35        -28.6834   -16.0736    -6.8210 H            1 CHD151   0.0000
    65 H36        -26.3858   -18.2610    -8.3600 H            1 CHD151   0.0000
    66 H37        -26.6443   -19.5997    -7.4612 H            1 CHD151   0.0000
    67 H38        -25.5406   -18.5760    -5.6136 H            1 CHD151   0.0000
    68 H39        -25.2884   -17.2320    -6.5063 H            1 CHD151   0.0000
@<TRIPOS>BOND
     1    1    2       1
     2    1   12       1
     3    2    3       1
     4    3    4       1
     5    3    5       1
     6    5    6       1
     7    6    7       1
     8    6   12       1
     9    7    8       1
    10    8    9       1
    11    8   10       1
    12   10   11       1
    13   10   17       1
    14   11   12       1
    15   11   13       1
    16   12   22       1
    17   13   14       1
    18   14   15       1
    19   14   16       1
    20   16   17       1
    21   16   20       1
    22   16   21       1
    23   17   18       1
    24   18   19       1
    25   19   20       1
    26   20   23       1
    27   23   24       1
    28   23   25       1
    29   25   26       1
    30   26   28       1
    31   27   28      ar
    32   28   29      ar
    33    1   30       1
    34    1   31       1
    35    2   32       1
    36    2   33       1
    37    3   34       1
    38    4   35       1
    39    5   36       1
    40    5   37       1
    41    6   38       1
    42    7   39       1
    43    7   40       1
    44    8   41       1
    45    9   42       1
    46   10   43       1
    47   11   44       1
    48   13   45       1
    49   13   46       1
    50   14   47       1
    51   15   48       1
    52   17   49       1
    53   18   50       1
    54   18   51       1
    55   19   52       1
    56   19   53       1
    57   20   54       1
    58   21   55       1
    59   21   56       1
    60   21   57       1
    61   22   58       1
    62   22   59       1
    63   22   60       1
    64   23   61       1
    65   24   62       1
    66   24   63       1
    67   24   64       1
    68   25   65       1
    69   25   66       1
    70   26   67       1
    71   26   68       1
@<TRIPOS>SUBSTRUCTURE
     1 CHD151      1 GROUP             4 B     CHD     0 **** CHD B 151
