@<TRIPOS>MOLECULE
2f8l_SAM_1_ligand
   50    52     1     0     0
SMALL
NO_CHARGES


@<TRIPOS>ATOM
     1 N           41.8180    18.5170    45.3490 N.4          1 SAM400   1.0000
     2 CA          41.7690    18.9830    46.7120 C.3          1 SAM400   0.0000
     3 C           43.1030    18.7370    47.4540 C.2          1 SAM400   0.0000
     4 O           44.0320    18.2050    46.8780 O.co2        1 SAM400   0.0000
     5 OXT         43.3100    19.0620    48.6220 O.co2        1 SAM400  -1.0000
     6 CB          40.5590    18.3640    47.3920 C.3          1 SAM400   0.0000
     7 CG          39.2900    19.1290    47.0470 C.3          1 SAM400   0.0000
     8 SD          37.9300    18.8070    48.2010 S.3          1 SAM400   1.0000
     9 CE          37.4250    17.1300    47.7250 C.3          1 SAM400   0.0000
    10 C5'         36.7040    19.9240    47.3650 C.3          1 SAM400   0.0000
    11 C4'         36.8080    21.4390    47.6840 C.3          1 SAM400   0.0000
    12 O4'         35.7210    22.2250    47.1980 O.3          1 SAM400   0.0000
    13 C3'         36.8430    21.8010    49.1790 C.3          1 SAM400   0.0000
    14 O3'         38.1420    22.1310    49.4810 O.3          1 SAM400   0.0000
    15 C2'         35.8490    22.9600    49.4340 C.3          1 SAM400   0.0000
    16 O2'         36.2860    23.9670    50.3400 O.3          1 SAM400   0.0000
    17 C1'         35.6980    23.4310    47.9970 C.3          1 SAM400   0.0000
    18 N9          34.5170    24.2530    47.7190 N.pl3        1 SAM400   0.0000
    19 C8          33.1810    23.9920    47.9910 C.2          1 SAM400   0.0000
    20 N7          32.4450    24.9840    47.4910 N.2          1 SAM400   0.0000
    21 C5          33.2860    25.8730    46.8880 C.ar         1 SAM400   0.0000
    22 C6          33.0850    27.0780    46.2530 C.ar         1 SAM400   0.0000
    23 N6          31.8680    27.5850    46.1080 N.pl3        1 SAM400   0.0000
    24 N1          34.1950    27.7500    45.7580 N.ar         1 SAM400   0.0000
    25 C2          35.4760    27.2710    45.9010 C.ar         1 SAM400   0.0000
    26 N3          35.6730    26.1000    46.5620 N.ar         1 SAM400   0.0000
    27 C4          34.5970    25.4250    47.0380 C.ar         1 SAM400   0.0000
    28 H1          41.5188    17.5635    45.3117 H            1 SAM400   0.0000
    29 H2          41.2142    19.0782    44.7829 H            1 SAM400   0.0000
    30 HA          41.6216    19.9717    46.6838 H            1 SAM400   0.0000
    31 HB1         40.6943    18.3845    48.3826 H            1 SAM400   0.0000
    32 HB2         40.4624    17.4161    47.0884 H            1 SAM400   0.0000
    33 HG1         38.9977    18.8629    46.1284 H            1 SAM400   0.0000
    34 HG2         39.4946    20.1078    47.0613 H            1 SAM400   0.0000
    35 HE1         36.6645    16.8342    48.3031 H            1 SAM400   0.0000
    36 HE2         37.1364    17.1279    46.7676 H            1 SAM400   0.0000
    37 HE3         38.1959    16.5039    47.8421 H            1 SAM400   0.0000
    38 H5'1        35.7886    19.6210    47.6302 H            1 SAM400   0.0000
    39 H5'2        36.8185    19.8140    46.3777 H            1 SAM400   0.0000
    40 H4'         37.6478    21.7840    47.2649 H            1 SAM400   0.0000
    41 H3'         36.5693    21.0051    49.7190 H            1 SAM400   0.0000
    42 H15         38.4268    22.9096    48.9218 H            1 SAM400   0.0000
    43 H2'         34.9783    22.5847    49.7520 H            1 SAM400   0.0000
    44 H17         37.1222    24.3896    49.9906 H            1 SAM400   0.0000
    45 H1'         36.5080    23.9690    47.7638 H            1 SAM400   0.0000
    46 H19         32.8298    23.1936    48.4801 H            1 SAM400   0.0000
    47 H20         31.7437    28.4618    45.6436 H            1 SAM400   0.0000
    48 H21         31.0747    27.0904    46.4631 H            1 SAM400   0.0000
    49 H22         36.2517    27.7771    45.5239 H            1 SAM400   0.0000
    50 H23         42.7550    18.5859    45.0066 H            1 SAM400   0.0000
@<TRIPOS>BOND
     1    1    2       1
     2    2    3       1
     3    2    6       1
     4    3    4      ar
     5    3    5      ar
     6    6    7       1
     7    7    8       1
     8    8    9       1
     9    8   10       1
    10   10   11       1
    11   11   12       1
    12   11   13       1
    13   12   17       1
    14   13   14       1
    15   13   15       1
    16   15   16       1
    17   15   17       1
    18   17   18       1
    19   18   19       1
    20   18   27       1
    21   19   20       2
    22   20   21       1
    23   21   22      ar
    24   21   27      ar
    25   22   23       1
    26   22   24      ar
    27   24   25      ar
    28   25   26      ar
    29   26   27      ar
    30    1   28       1
    31    1   29       1
    32    2   30       1
    33    1   50       1
    34    6   31       1
    35    6   32       1
    36    7   33       1
    37    7   34       1
    38    9   35       1
    39    9   36       1
    40    9   37       1
    41   10   38       1
    42   10   39       1
    43   11   40       1
    44   13   41       1
    45   14   42       1
    46   15   43       1
    47   16   44       1
    48   17   45       1
    49   19   46       1
    50   23   47       1
    51   23   48       1
    52   25   49       1
@<TRIPOS>SUBSTRUCTURE
     1 SAM400      1 GROUP             4 A     SAM     0 **** SAM A 400
