@<TRIPOS>MOLECULE
./coach420/1a4k/ligand.pdb
 31 34 0 0 0
SMALL
GASTEIGER

@<TRIPOS>ATOM
      1  C22       50.2860   52.8420   -3.1240 C.3   3083  FRA3083     0.0968
      2  C1        51.1620   53.9170   -2.4930 C.2   3083  FRA3083     0.2461
      3  O3        50.8850   55.1150   -2.6590 O.2   3083  FRA3083    -0.2730
      4  N1        52.2350   53.6590   -1.7540 N.am  3083  FRA3083    -0.1792
      5  C2        53.2650   54.4200   -1.1020 C.ar  3083  FRA3083     0.0734
      6  C7        52.9360   55.6750   -0.5450 C.ar  3083  FRA3083     0.0179
      7  C6        53.9010   56.4450    0.0810 C.ar  3083  FRA3083     0.0167
      8  C5        55.2450   56.0050    0.1910 C.ar  3083  FRA3083     0.0607
      9  C4        55.5860   54.7260   -0.3700 C.ar  3083  FRA3083     0.0167
     10  C3        54.6030   53.9410   -1.0110 C.ar  3083  FRA3083     0.0179
     11  N5        56.2310   56.9060    0.8570 N.am  3083  FRA3083    -0.2081
     12  C11       56.0470   57.5970    2.0360 C.2   3083  FRA3083     0.2352
     13  C10       57.2500   58.4580    2.3960 C.3   3083  FRA3083     0.0877
     14  C9        58.2570   58.1630    1.2260 C.3   3083  FRA3083     0.1044
     15  C8        57.4640   57.1880    0.3660 C.2   3083  FRA3083     0.2367
     16  O11       55.0390   57.5760    2.7530 O.2   3083  FRA3083    -0.2741
     17  O8        57.9560   56.7450   -0.6760 O.2   3083  FRA3083    -0.2741
     18  C12       56.9910   60.0720    2.5010 C.3   3083  FRA3083     0.0093
     19  C17       56.4420   60.6330    1.0870 C.3   3083  FRA3083     0.0022
     20  C16       57.4930   60.2660   -0.0840 C.3   3083  FRA3083     0.0206
     21  C14       59.3000   60.4320    1.7600 C.3   3083  FRA3083     0.0206
     22  C13       58.3790   60.7280    2.7710 C.3   3083  FRA3083     0.0022
     23  C15       58.7680   59.5000    0.5310 C.3   3083  FRA3083     0.0905
     24  N15       59.6760   59.0830   -0.5740 N.am  3083  FRA3083    -0.1716
     25  C18       60.9740   58.8130   -0.4580 C.2   3083  FRA3083     0.4216
     26  O18       61.6140   58.8990    0.5950 O.2   3083  FRA3083    -0.2246
     27  O19       61.4560   58.3780   -1.6840 O.3   3083  FRA3083    -0.4210
     28  C19       62.8550   57.9820   -1.7930 C.3   3083  FRA3083     0.3229
     29  C20       62.7550   56.5810   -2.3620 C.2   3083  FRA3083     0.4086
     30  O20       62.8570   55.6150   -1.5650 O.co2 3083  FRA3083    -0.2415
     31  O21       62.5680   56.4280   -3.5860 O.co2 3083  FRA3083    -0.2415
@<TRIPOS>BOND
     1     1     2    1
     2     2     3    2
     3     2     4   am
     4     4     5    1
     5     5    10   ar
     6     5     6   ar
     7     6     7   ar
     8     7     8   ar
     9     8     9   ar
    10     8    11    1
    11     9    10   ar
    12    11    15   am
    13    11    12   am
    14    12    13    1
    15    12    16    2
    16    13    14    1
    17    13    18    1
    18    14    15    1
    19    14    23    1
    20    15    17    2
    21    18    19    1
    22    18    22    1
    23    19    20    1
    24    20    23    1
    25    21    23    1
    26    21    22    1
    27    23    24    1
    28    24    25   am
    29    25    27    1
    30    25    26    2
    31    27    28    1
    32    28    29    1
    33    29    31   ar
    34    29    30   ar
