@<TRIPOS>MOLECULE
3bos_CDP_2_ligand
   37    38     1     0     0
SMALL
NO_CHARGES


@<TRIPOS>ATOM
     1 O3B         41.0180    74.8590    24.5160 O.co2        1 CDP300   0.0000
     2 PB          39.5100    74.9580    24.5830 P.3          1 CDP300   0.0000
     3 O1B         38.8760    73.8120    23.8990 O.co2        1 CDP300  -1.0000
     4 O2B         39.0380    76.2860    24.1490 O.co2        1 CDP300  -1.0000
     5 O3A         39.1020    74.9400    26.1360 O.3          1 CDP300   0.0000
     6 PA          38.1280    73.9030    26.8910 P.3          1 CDP300   0.0000
     7 O1A         36.7500    73.9050    26.3460 O.co2        1 CDP300   0.0000
     8 O2A         38.8250    72.6270    27.0350 O.co2        1 CDP300  -1.0000
     9 O5'         38.0500    74.6540    28.2910 O.3          1 CDP300   0.0000
    10 C5'         39.0710    74.4310    29.3010 C.3          1 CDP300   0.0000
    11 C4'         38.4110    74.2550    30.6850 C.3          1 CDP300   0.0000
    12 O4'         37.7420    75.4660    31.1260 O.3          1 CDP300   0.0000
    13 C3'         37.3500    73.1790    30.6500 C.3          1 CDP300   0.0000
    14 O3'         37.2860    72.4650    31.8770 O.3          1 CDP300   0.0000
    15 C2'         36.0730    73.9580    30.4780 C.3          1 CDP300   0.0000
    16 O2'         34.9320    73.2820    30.9830 O.3          1 CDP300   0.0000
    17 C1'         36.3480    75.1830    31.2930 C.3          1 CDP300   0.0000
    18 N1          35.6430    76.4190    30.9810 N.pl3        1 CDP300   0.0000
    19 C2          34.5790    76.8250    31.7790 C.2          1 CDP300   0.0000
    20 O2          34.1940    76.1030    32.7080 O.2          1 CDP300   0.0000
    21 N3          33.9850    78.0080    31.5300 N.2          1 CDP300   0.0000
    22 C4          34.4010    78.8180    30.5310 C.2          1 CDP300   0.0000
    23 N4          33.8000    80.0120    30.3260 N.pl3        1 CDP300   0.0000
    24 C5          35.4590    78.4300    29.7390 C.2          1 CDP300   0.0000
    25 C6          36.0670    77.2250    29.9830 C.2          1 CDP300   0.0000
    26 H5'1        39.6897    75.2162    29.3261 H            1 CDP300   0.0000
    27 H5'2        39.5884    73.6062    29.0730 H            1 CDP300   0.0000
    28 H4'         39.1112    74.0044    31.3535 H            1 CDP300   0.0000
    29 H3'         37.4962    72.5568    29.8809 H            1 CDP300   0.0000
    30 H5          36.5757    71.7636    31.8178 H            1 CDP300   0.0000
    31 H2'         35.9385    74.2006    29.5172 H            1 CDP300   0.0000
    32 H7          34.1258    73.5481    30.4545 H            1 CDP300   0.0000
    33 H1'         36.1854    74.9631    32.2549 H            1 CDP300   0.0000
    34 H9          34.1112    80.6079    29.5857 H            1 CDP300   0.0000
    35 H10         33.0444    80.2990    30.9147 H            1 CDP300   0.0000
    36 H11         35.7793    79.0185    28.9966 H            1 CDP300   0.0000
    37 H12         36.8368    76.9383    29.4128 H            1 CDP300   0.0000
@<TRIPOS>BOND
     1    1    2      ar
     2    2    3      ar
     3    2    4      ar
     4    2    5       1
     5    5    6       1
     6    6    7      ar
     7    6    8      ar
     8    6    9       1
     9    9   10       1
    10   10   11       1
    11   11   12       1
    12   11   13       1
    13   12   17       1
    14   13   14       1
    15   13   15       1
    16   15   16       1
    17   15   17       1
    18   17   18       1
    19   18   19       1
    20   18   25       1
    21   19   20       2
    22   19   21       1
    23   21   22       2
    24   22   23       1
    25   22   24       1
    26   24   25       2
    27   25   37       1
    28   24   36       1
    29   23   35       1
    30   10   26       1
    31   10   27       1
    32   11   28       1
    33   13   29       1
    34   14   30       1
    35   15   31       1
    36   16   32       1
    37   17   33       1
    38   23   34       1
@<TRIPOS>SUBSTRUCTURE
     1 CDP300      1 GROUP             4 B     CDP     0 **** CDP B 300
