@<TRIPOS>MOLECULE
4itr_GDP_2_ligand
   40    42     1     0     0
SMALL
NO_CHARGES


@<TRIPOS>ATOM
     1 PB          22.4100   -28.6470   -35.2740 P.3          1 GDP202   0.0000
     2 O1B         22.2450   -27.5120   -36.2530 O.co2        1 GDP202   0.0000
     3 O2B         22.6100   -28.1040   -33.8820 O.co2        1 GDP202  -1.0000
     4 O3B         23.6120   -29.4600   -35.6740 O.co2        1 GDP202  -1.0000
     5 O3A         21.1160   -29.5990   -35.3030 O.3          1 GDP202   0.0000
     6 PA          19.8520   -29.3700   -34.3350 P.3          1 GDP202   0.0000
     7 O1A         19.3640   -27.9450   -34.3790 O.co2        1 GDP202   0.0000
     8 O2A         20.1860   -29.7860   -32.9240 O.co2        1 GDP202  -1.0000
     9 O5'         18.7690   -30.3730   -34.9720 O.3          1 GDP202   0.0000
    10 C5'         18.2350   -30.1130   -36.2710 C.3          1 GDP202   0.0000
    11 C4'         17.0370   -31.0180   -36.5410 C.3          1 GDP202   0.0000
    12 O4'         17.3960   -32.3820   -36.2990 O.3          1 GDP202   0.0000
    13 C3'         15.8850   -30.6860   -35.6080 C.3          1 GDP202   0.0000
    14 O3'         14.6570   -30.6960   -36.3450 O.3          1 GDP202   0.0000
    15 C2'         15.8750   -31.8130   -34.6000 C.3          1 GDP202   0.0000
    16 O2'         14.5400   -32.0960   -34.1780 O.3          1 GDP202   0.0000
    17 C1'         16.4750   -32.9740   -35.3760 C.3          1 GDP202   0.0000
    18 N9          17.1740   -33.9370   -34.4890 N.pl3        1 GDP202   0.0000
    19 C8          18.2270   -33.6960   -33.6850 C.2          1 GDP202   0.0000
    20 N7          18.6090   -34.8220   -33.0300 N.2          1 GDP202   0.0000
    21 C5          17.7940   -35.8180   -33.4270 C.2          1 GDP202   0.0000
    22 C6          17.6440   -37.2620   -33.1310 C.2          1 GDP202   0.0000
    23 O6          18.4000   -37.8420   -32.3220 O.2          1 GDP202   0.0000
    24 N1          16.6720   -37.9320   -33.7560 N.pl3        1 GDP202   0.0000
    25 C2          15.8410   -37.3350   -34.6290 C.2          1 GDP202   0.0000
    26 N2          14.8820   -38.0870   -35.2180 N.pl3        1 GDP202   0.0000
    27 N3          15.9180   -36.0190   -34.9490 N.2          1 GDP202   0.0000
    28 C4          16.8570   -35.2260   -34.3880 C.2          1 GDP202   0.0000
    29 H5'1        18.9405   -30.2855   -36.9584 H            1 GDP202   0.0000
    30 H5'2        17.9451   -29.1574   -36.3234 H            1 GDP202   0.0000
    31 H4'         16.7422   -30.9113   -37.4906 H            1 GDP202   0.0000
    32 H3'         16.0282   -29.8037   -35.1596 H            1 GDP202   0.0000
    33 H5          14.0410   -31.3817   -35.9572 H            1 GDP202   0.0000
    34 H2'         16.4491   -31.5841   -33.8139 H            1 GDP202   0.0000
    35 H7          14.3133   -33.0438   -34.4023 H            1 GDP202   0.0000
    36 H1'         15.7532   -33.4474   -35.8809 H            1 GDP202   0.0000
    37 H9          18.6693   -32.8049   -33.5838 H            1 GDP202   0.0000
    38 H10         16.5586   -38.9078   -33.5690 H            1 GDP202   0.0000
    39 H11         14.2502   -37.6696   -35.8711 H            1 GDP202   0.0000
    40 H12         14.8053   -39.0599   -35.0000 H            1 GDP202   0.0000
@<TRIPOS>BOND
     1    1    2      ar
     2    1    3      ar
     3    1    4      ar
     4    1    5       1
     5    5    6       1
     6    6    7      ar
     7    6    8      ar
     8    6    9       1
     9    9   10       1
    10   10   11       1
    11   11   12       1
    12   11   13       1
    13   12   17       1
    14   13   14       1
    15   13   15       1
    16   15   16       1
    17   15   17       1
    18   17   18       1
    19   18   19       1
    20   18   28       1
    21   19   20       2
    22   20   21       1
    23   21   22       1
    24   21   28       2
    25   22   23       2
    26   22   24       1
    27   24   25       1
    28   25   26       1
    29   25   27       2
    30   27   28       1
    31   26   40       1
    32   26   39       1
    33   24   38       1
    34   10   29       1
    35   10   30       1
    36   11   31       1
    37   13   32       1
    38   14   33       1
    39   15   34       1
    40   16   35       1
    41   17   36       1
    42   19   37       1
@<TRIPOS>SUBSTRUCTURE
     1 GDP202      1 GROUP             4 D     GDP     0 **** GDP D 202
