@<TRIPOS>MOLECULE
4gkv_NAD_1_ligand
   70    74     1     0     0
SMALL
NO_CHARGES


@<TRIPOS>ATOM
     1 PA          20.3380    32.3030    22.6440 P.3          1 NAD401   0.0000
     2 O1A         19.5310    31.7780    21.4770 O.co2        1 NAD401   0.0000
     3 O2A         20.2390    33.7920    22.8300 O.co2        1 NAD401  -1.0000
     4 O5B         19.7560    31.5110    23.9260 O.3          1 NAD401   0.0000
     5 C5B         20.3360    31.9680    25.1330 C.3          1 NAD401   0.0000
     6 C4B         19.5120    31.2930    26.2370 C.3          1 NAD401   0.0000
     7 O4B         20.1620    31.4540    27.5070 O.3          1 NAD401   0.0000
     8 C3B         18.1310    31.9860    26.3320 C.3          1 NAD401   0.0000
     9 O3B         17.0540    31.0400    26.3340 O.3          1 NAD401   0.0000
    10 C2B         18.2050    32.7080    27.7090 C.3          1 NAD401   0.0000
    11 O2B         16.9090    32.7670    28.2980 O.3          1 NAD401   0.0000
    12 C1B         19.0860    31.6760    28.4410 C.3          1 NAD401   0.0000
    13 N9A         19.5480    32.1690    29.7350 N.pl3        1 NAD401   0.0000
    14 C8A         19.9380    33.4350    30.0720 C.2          1 NAD401   0.0000
    15 N7A         20.2580    33.4660    31.3380 N.2          1 NAD401   0.0000
    16 C5A         20.0830    32.2330    31.8840 C.ar         1 NAD401   0.0000
    17 C6A         20.2550    31.6600    33.1580 C.ar         1 NAD401   0.0000
    18 N6A         20.7090    32.4160    34.2280 N.pl3        1 NAD401   0.0000
    19 N1A         19.9710    30.3640    33.3120 N.ar         1 NAD401   0.0000
    20 C2A         19.5330    29.6190    32.3130 C.ar         1 NAD401   0.0000
    21 N3A         19.3540    30.1120    31.1070 N.ar         1 NAD401   0.0000
    22 C4A         19.6180    31.3920    30.8540 C.ar         1 NAD401   0.0000
    23 O3          21.9370    32.0270    22.5430 O.3          1 NAD401   0.0000
    24 PN          22.5300    30.7360    21.7430 P.3          1 NAD401   0.0000
    25 O1N         22.6580    31.0750    20.2320 O.co2        1 NAD401   0.0000
    26 O2N         21.7650    29.4160    21.9500 O.co2        1 NAD401  -1.0000
    27 O5D         24.0570    30.6310    22.2660 O.3          1 NAD401   0.0000
    28 C5D         24.1580    30.4420    23.6800 C.3          1 NAD401   0.0000
    29 C4D         25.6390    30.5740    24.1030 C.3          1 NAD401   0.0000
    30 O4D         26.4130    29.5320    23.4640 O.3          1 NAD401   0.0000
    31 C3D         26.2670    31.9090    23.6310 C.3          1 NAD401   0.0000
    32 O3D         27.1860    32.3540    24.6220 O.3          1 NAD401   0.0000
    33 C2D         27.0100    31.4960    22.3370 C.3          1 NAD401   0.0000
    34 O2D         28.0780    32.3900    22.0350 O.3          1 NAD401   0.0000
    35 C1D         27.5460    30.1250    22.7960 C.3          1 NAD401   0.0000
    36 N1N         27.9230    29.2060    21.7110 N.ar         1 NAD401   1.0000
    37 C2N         28.9550    28.4000    21.9070 C.ar         1 NAD401   0.0000
    38 C3N         29.3640    27.4780    20.9380 C.ar         1 NAD401   0.0000
    39 C7N         30.5280    26.5840    21.2050 C.2          1 NAD401   0.0000
    40 O7N         31.1070    25.9900    20.3120 O.2          1 NAD401   0.0000
    41 N7N         30.9410    26.3880    22.4740 N.am         1 NAD401   0.0000
    42 C4N         28.6320    27.4180    19.7450 C.ar         1 NAD401   0.0000
    43 C5N         27.5500    28.2770    19.5840 C.ar         1 NAD401   0.0000
    44 C6N         27.2110    29.1590    20.6010 C.ar         1 NAD401   0.0000
    45 H5B1        20.2702    32.9635    25.2017 H            1 NAD401   0.0000
    46 H5B2        21.2956    31.6927    25.1901 H            1 NAD401   0.0000
    47 H4B         19.3949    30.3212    26.0322 H            1 NAD401   0.0000
    48 H3B         18.0171    32.6487    25.5918 H            1 NAD401   0.0000
    49 H5          16.8454    30.7744    27.2752 H            1 NAD401   0.0000
    50 H2B         18.6389    33.6068    27.6473 H            1 NAD401   0.0000
    51 H7          16.7614    31.9539    28.8610 H            1 NAD401   0.0000
    52 H1B         18.5726    30.8275    28.5692 H            1 NAD401   0.0000
    53 H8A         19.9729    34.2151    29.4473 H            1 NAD401   0.0000
    54 H6A1        20.8252    31.9920    35.1262 H            1 NAD401   0.0000
    55 H6A2        20.9202    33.3852    34.1015 H            1 NAD401   0.0000
    56 H2A         19.3320    28.6535    32.4783 H            1 NAD401   0.0000
    57 H5D1        23.8206    29.5321    23.9212 H            1 NAD401   0.0000
    58 H5D2        23.6122    31.1354    24.1504 H            1 NAD401   0.0000
    59 H4D         25.7170    30.4944    25.0968 H            1 NAD401   0.0000
    60 H3D         25.5661    32.5979    23.4464 H            1 NAD401   0.0000
    61 H17         27.5995    33.2163    24.3299 H            1 NAD401   0.0000
    62 H2D         26.3799    31.4039    21.5660 H            1 NAD401   0.0000
    63 H19         28.5338    32.0934    21.1958 H            1 NAD401   0.0000
    64 H1D         28.3064    30.2427    23.4347 H            1 NAD401   0.0000
    65 H2N         29.4555    28.4518    22.7712 H            1 NAD401   0.0000
    66 H7N1        31.7207    25.7899    22.6593 H            1 NAD401   0.0000
    67 H7N2        30.4675    26.8408    23.2295 H            1 NAD401   0.0000
    68 H4N         28.8821    26.7713    19.0245 H            1 NAD401   0.0000
    69 H5N         27.0176    28.2593    18.7377 H            1 NAD401   0.0000
    70 H6N         26.4216    29.7630    20.4916 H            1 NAD401   0.0000
@<TRIPOS>BOND
     1    1    2      ar
     2    1    3      ar
     3    1    4       1
     4    1   23       1
     5    4    5       1
     6    5    6       1
     7    6    7       1
     8    6    8       1
     9    7   12       1
    10    8    9       1
    11    8   10       1
    12   10   11       1
    13   10   12       1
    14   12   13       1
    15   13   14       1
    16   13   22       1
    17   14   15       2
    18   15   16       1
    19   16   17      ar
    20   16   22      ar
    21   17   18       1
    22   17   19      ar
    23   19   20      ar
    24   20   21      ar
    25   21   22      ar
    26   23   24       1
    27   24   25      ar
    28   24   26      ar
    29   24   27       1
    30   27   28       1
    31   28   29       1
    32   29   30       1
    33   29   31       1
    34   30   35       1
    35   31   32       1
    36   31   33       1
    37   33   34       1
    38   33   35       1
    39   35   36       1
    40   36   37      ar
    41   36   44      ar
    42   37   38      ar
    43   38   39       1
    44   38   42      ar
    45   39   40       2
    46   39   41      am
    47   42   43      ar
    48   43   44      ar
    49   44   70       1
    50    5   45       1
    51    5   46       1
    52    6   47       1
    53    8   48       1
    54    9   49       1
    55   10   50       1
    56   11   51       1
    57   12   52       1
    58   14   53       1
    59   18   54       1
    60   18   55       1
    61   20   56       1
    62   43   69       1
    63   28   57       1
    64   28   58       1
    65   29   59       1
    66   31   60       1
    67   32   61       1
    68   33   62       1
    69   34   63       1
    70   35   64       1
    71   37   65       1
    72   41   66       1
    73   41   67       1
    74   42   68       1
@<TRIPOS>SUBSTRUCTURE
     1 NAD401      1 GROUP             4 A     NAD     0 **** NAD A 401
