@<TRIPOS>MOLECULE
2gl0_ADN_6_ligand
   32    34     1     0     0
SMALL
NO_CHARGES


@<TRIPOS>ATOM
     1 O5'        -17.4130   -15.9000     5.6610 O.3          1 ADN906   0.0000
     2 C5'        -17.7400   -14.6460     6.2410 C.3          1 ADN906   0.0000
     3 C4'        -17.2300   -13.5540     5.3020 C.3          1 ADN906   0.0000
     4 O4'        -15.8240   -13.6600     4.9640 O.3          1 ADN906   0.0000
     5 C3'        -17.9560   -13.5070     3.9790 C.3          1 ADN906   0.0000
     6 O3'        -19.1930   -12.8120     4.1810 O.3          1 ADN906   0.0000
     7 C2'        -16.9370   -12.7530     3.1100 C.3          1 ADN906   0.0000
     8 O2'        -17.0770   -11.3500     3.3710 O.3          1 ADN906   0.0000
     9 C1'        -15.5710   -13.1550     3.6550 C.3          1 ADN906   0.0000
    10 N9         -14.9750   -14.2790     2.8990 N.pl3        1 ADN906   0.0000
    11 C8         -15.6340   -15.4240     2.6040 C.2          1 ADN906   0.0000
    12 N7         -14.8610   -16.2780     1.9320 N.2          1 ADN906   0.0000
    13 C5         -13.6550   -15.6530     1.7200 C.ar         1 ADN906   0.0000
    14 C6         -12.3870   -16.0100     1.0520 C.ar         1 ADN906   0.0000
    15 N6         -12.3260   -17.2340     0.4670 N.pl3        1 ADN906   0.0000
    16 N1         -11.3290   -15.1260     1.0500 N.ar         1 ADN906   0.0000
    17 C2         -11.4860   -13.9470     1.6780 C.ar         1 ADN906   0.0000
    18 N3         -12.6090   -13.5330     2.3120 N.ar         1 ADN906   0.0000
    19 C4         -13.7150   -14.3390     2.3870 C.ar         1 ADN906   0.0000
    20 H5'        -18.2512   -16.4199     5.4965 H            1 ADN906   0.0000
    21 H5'1       -17.3006   -14.5591     7.1351 H            1 ADN906   0.0000
    22 H5'2       -18.7312   -14.5680     6.3477 H            1 ADN906   0.0000
    23 H4'        -17.3680   -12.6738     5.7560 H            1 ADN906   0.0000
    24 H3'        -18.1163   -14.4285     3.6253 H            1 ADN906   0.0000
    25 H6         -19.5079   -12.9576     5.1189 H            1 ADN906   0.0000
    26 H2'        -17.0352   -12.9688     2.1385 H            1 ADN906   0.0000
    27 H8         -17.3177   -10.8758     2.5241 H            1 ADN906   0.0000
    28 H1'        -14.9502   -12.3716     3.6848 H            1 ADN906   0.0000
    29 H10        -16.5836   -15.6070     2.8586 H            1 ADN906   0.0000
    30 H11        -11.4901   -17.5245     0.0014 H            1 ADN906   0.0000
    31 H12        -13.1170   -17.8448     0.5019 H            1 ADN906   0.0000
    32 H13        -10.7057   -13.3217     1.6767 H            1 ADN906   0.0000
@<TRIPOS>BOND
     1    1    2       1
     2    2    3       1
     3    3    4       1
     4    3    5       1
     5    4    9       1
     6    5    6       1
     7    5    7       1
     8    7    8       1
     9    7    9       1
    10    9   10       1
    11   10   11       1
    12   10   19       1
    13   11   12       2
    14   12   13       1
    15   13   14      ar
    16   13   19      ar
    17   14   15       1
    18   14   16      ar
    19   16   17      ar
    20   17   18      ar
    21   18   19      ar
    22    1   20       1
    23    2   21       1
    24    2   22       1
    25    3   23       1
    26    5   24       1
    27    6   25       1
    28    7   26       1
    29    8   27       1
    30    9   28       1
    31   11   29       1
    32   15   30       1
    33   15   31       1
    34   17   32       1
@<TRIPOS>SUBSTRUCTURE
     1 ADN906      1 GROUP             4 F     ADN     0 **** ADN F 906
