@<TRIPOS>MOLECULE
3r9c_ECL_1_ligand
   39    41     1     0     0
SMALL
NO_CHARGES


@<TRIPOS>ATOM
     1 C1           6.9850     1.7290    35.3460 C.ar         1 ECL451   0.0000
     2 N1           7.4560     6.7170    38.5880 N.pl3        1 ECL451   0.0000
     3 C2           8.2330     1.3750    35.8540 C.ar         1 ECL451   0.0000
     4 CL2          9.0520    -2.1080    33.9650 Cl           1 ECL451   0.0000
     5 C3           6.5420     6.9870    39.5230 C.2          1 ECL451   0.0000
     6 CL4          6.6490     9.6270    32.8290 Cl           1 ECL451   0.0000
     7 C5           7.7910     7.3930    34.0150 C.ar         1 ECL451   0.0000
     8 C6           7.4660     8.8730    38.9380 C.2          1 ECL451   0.0000
     9 C7           8.0400     7.8580    38.2120 C.2          1 ECL451   0.0000
    10 C8           6.3300     3.0040    35.8200 C.3          1 ECL451   0.0000
    11 CL8          4.3690     6.9600    37.0180 Cl           1 ECL451   0.0000
    12 C9           6.9740    -0.2600    33.9750 C.ar         1 ECL451   0.0000
    13 C10          6.3530     0.9150    34.4050 C.ar         1 ECL451   0.0000
    14 C11          8.2240    -0.6080    34.4900 C.ar         1 ECL451   0.0000
    15 C13          8.8500     0.2070    35.4220 C.ar         1 ECL451   0.0000
    16 C14          6.7180     8.2830    34.0130 C.ar         1 ECL451   0.0000
    17 C15          5.6890     8.1350    34.9350 C.ar         1 ECL451   0.0000
    18 C16          5.7250     7.0950    35.8590 C.ar         1 ECL451   0.0000
    19 C17          6.7910     6.1960    35.8770 C.ar         1 ECL451   0.0000
    20 C19          7.7620     5.3950    38.0500 C.3          1 ECL451   0.0000
    21 N19          6.5440     8.3140    39.7440 N.2          1 ECL451   0.0000
    22 C20          6.8450     5.0790    36.8650 C.3          1 ECL451   0.0000
    23 O20          7.3540     3.9080    36.2320 O.3          1 ECL451   0.0000
    24 C21          7.8230     6.3550    34.9490 C.ar         1 ECL451   0.0000
    25 H1           8.6839     1.9601    36.5281 H            1 ECL451   0.0000
    26 H2           5.9565     6.3178    39.9805 H            1 ECL451   0.0000
    27 H3           8.5326     7.4970    33.3523 H            1 ECL451   0.0000
    28 H4           7.6910     9.8456    38.8789 H            1 ECL451   0.0000
    29 H5           8.7625     7.9554    37.5275 H            1 ECL451   0.0000
    30 H6           5.7236     2.8064    36.5902 H            1 ECL451   0.0000
    31 H7           5.8009     3.4096    35.0746 H            1 ECL451   0.0000
    32 H8           6.5258    -0.8485    33.3021 H            1 ECL451   0.0000
    33 H9           5.4583     1.1721    34.0397 H            1 ECL451   0.0000
    34 H10          9.7471    -0.0465    35.7837 H            1 ECL451   0.0000
    35 H11          4.9218     8.7764    34.9346 H            1 ECL451   0.0000
    36 H12          7.6265     4.7085    38.7644 H            1 ECL451   0.0000
    37 H13          8.7141     5.3751    37.7450 H            1 ECL451   0.0000
    38 H14          5.9222     4.8948    37.2035 H            1 ECL451   0.0000
    39 H15          8.5939     5.7180    34.9535 H            1 ECL451   0.0000
@<TRIPOS>BOND
     1    1    3      ar
     2    1   10       1
     3    1   13      ar
     4    2    5       1
     5    2    9       1
     6    2   20       1
     7    3   15      ar
     8    4   14       1
     9    5   21       2
    10    6   16       1
    11    7   16      ar
    12    7   24      ar
    13    8    9       2
    14    8   21       1
    15   10   23       1
    16   11   18       1
    17   12   13      ar
    18   12   14      ar
    19   14   15      ar
    20   16   17      ar
    21   17   18      ar
    22   18   19      ar
    23   19   22       1
    24   19   24      ar
    25   20   22       1
    26   22   23       1
    27    3   25       1
    28    5   26       1
    29    7   27       1
    30    8   28       1
    31    9   29       1
    32   10   30       1
    33   10   31       1
    34   12   32       1
    35   13   33       1
    36   15   34       1
    37   17   35       1
    38   20   36       1
    39   20   37       1
    40   22   38       1
    41   24   39       1
@<TRIPOS>SUBSTRUCTURE
     1 ECL451      1 GROUP             4 A     ECL     0 **** ECL A 451
