@<TRIPOS>MOLECULE
4co0_ADP_2_ligand
   39    41     1     0     0
SMALL
NO_CHARGES


@<TRIPOS>ATOM
     1 PB          12.9760   -14.2610    25.5810 P.3          1 ADP113   0.0000
     2 O1B         11.8990   -13.4250    26.2310 O.co2        1 ADP113   0.0000
     3 O2B         12.5420   -15.6570    25.1830 O.co2        1 ADP113  -1.0000
     4 O3B         14.3040   -14.2250    26.2990 O.co2        1 ADP113  -1.0000
     5 PA          13.9030   -12.0790    23.9610 P.3          1 ADP113   0.0000
     6 O1A         14.8300   -11.8660    25.1390 O.co2        1 ADP113   0.0000
     7 O2A         14.4410   -12.0240    22.5510 O.co2        1 ADP113  -1.0000
     8 O3A         13.2200   -13.5360    24.1500 O.3          1 ADP113   0.0000
     9 O5'         12.7000   -11.0010    24.0520 O.3          1 ADP113   0.0000
    10 C5'         11.3610   -11.3660    23.7120 C.3          1 ADP113   0.0000
    11 C4'         10.4550   -10.1520    23.4710 C.3          1 ADP113   0.0000
    12 O4'          9.8180    -9.7540    24.6890 O.3          1 ADP113   0.0000
    13 C3'         11.1660    -8.9090    22.9500 C.3          1 ADP113   0.0000
    14 O3'         11.2020    -8.8820    21.5150 O.3          1 ADP113   0.0000
    15 C2'         10.3720    -7.7610    23.5410 C.3          1 ADP113   0.0000
    16 O2'          9.2700    -7.4470    22.6830 O.3          1 ADP113   0.0000
    17 C1'          9.7900    -8.3310    24.8180 C.3          1 ADP113   0.0000
    18 N9          10.5980    -7.9930    26.0130 N.pl3        1 ADP113   0.0000
    19 C8          11.6230    -8.7300    26.4740 C.2          1 ADP113   0.0000
    20 N7          12.1660    -8.1870    27.5910 N.2          1 ADP113   0.0000
    21 C5          11.4590    -7.0790    27.8750 C.ar         1 ADP113   0.0000
    22 C6          11.5040    -6.0440    28.9270 C.ar         1 ADP113   0.0000
    23 N6          12.4190    -6.0840    29.9210 N.pl3        1 ADP113   0.0000
    24 N1          10.5810    -5.0670    28.8510 N.ar         1 ADP113   0.0000
    25 C2           9.6680    -5.0170    27.8660 C.ar         1 ADP113   0.0000
    26 N3           9.5670    -5.9150    26.8730 N.ar         1 ADP113   0.0000
    27 C4          10.4280    -6.9550    26.8370 C.ar         1 ADP113   0.0000
    28 H5'1        10.9777   -11.9067    24.4608 H            1 ADP113   0.0000
    29 H5'2        11.3826   -11.9186    22.8788 H            1 ADP113   0.0000
    30 H4'          9.7473   -10.4108    22.8136 H            1 ADP113   0.0000
    31 H3'         12.0999    -8.8859    23.3067 H            1 ADP113   0.0000
    32 H5          11.6742    -8.0554    21.2089 H            1 ADP113   0.0000
    33 H2'         10.9468    -6.9619    23.7173 H            1 ADP113   0.0000
    34 H7           8.7478    -6.6895    23.0748 H            1 ADP113   0.0000
    35 H1'          8.8489    -8.0149    24.9383 H            1 ADP113   0.0000
    36 H9          11.9452    -9.5744    26.0460 H            1 ADP113   0.0000
    37 H10         12.4279    -5.3703    30.6214 H            1 ADP113   0.0000
    38 H11         13.0871    -6.8273    29.9560 H            1 ADP113   0.0000
    39 H12          9.0179    -4.2572    27.8732 H            1 ADP113   0.0000
@<TRIPOS>BOND
     1    1    2      ar
     2    1    3      ar
     3    1    4      ar
     4    1    8       1
     5    5    6      ar
     6    5    7      ar
     7    5    8       1
     8    5    9       1
     9    9   10       1
    10   10   11       1
    11   11   12       1
    12   11   13       1
    13   12   17       1
    14   13   14       1
    15   13   15       1
    16   15   16       1
    17   15   17       1
    18   17   18       1
    19   18   19       1
    20   18   27       1
    21   19   20       2
    22   20   21       1
    23   21   22      ar
    24   21   27      ar
    25   22   23       1
    26   22   24      ar
    27   24   25      ar
    28   25   26      ar
    29   26   27      ar
    30   25   39       1
    31   23   38       1
    32   23   37       1
    33   10   28       1
    34   10   29       1
    35   11   30       1
    36   13   31       1
    37   14   32       1
    38   15   33       1
    39   16   34       1
    40   17   35       1
    41   19   36       1
@<TRIPOS>SUBSTRUCTURE
     1 ADP113      1 GROUP             4 B     ADP     0 **** ADP B 113
