@<TRIPOS>MOLECULE
3zvm_ADP_1_ligand
   39    41     1     0     0
SMALL
NO_CHARGES


@<TRIPOS>ATOM
     1 PB         -16.5890   -13.4060    41.7710 P.3          1 ADP1523   0.0000
     2 O1B        -16.9940   -11.9730    41.9890 O.co2        1 ADP1523   0.0000
     3 O2B        -16.4580   -13.7390    40.3220 O.co2        1 ADP1523  -1.0000
     4 O3B        -17.3380   -14.4290    42.5850 O.co2        1 ADP1523  -1.0000
     5 PA         -13.6660   -13.2890    41.4390 P.3          1 ADP1523   0.0000
     6 O1A        -13.3400   -14.5760    40.7200 O.co2        1 ADP1523   0.0000
     7 O2A        -13.7550   -11.9790    40.6930 O.co2        1 ADP1523  -1.0000
     8 O3A        -15.0440   -13.4700    42.3060 O.3          1 ADP1523   0.0000
     9 O5'        -12.5920   -13.1180    42.6120 O.3          1 ADP1523   0.0000
    10 C5'        -12.6030   -11.9400    43.4380 C.3          1 ADP1523   0.0000
    11 C4'        -11.1530   -11.5770    43.7620 C.3          1 ADP1523   0.0000
    12 O4'        -10.5460   -12.5650    44.6020 O.3          1 ADP1523   0.0000
    13 C3'        -10.3400   -11.5400    42.4850 C.3          1 ADP1523   0.0000
    14 O3'         -9.4480   -10.4360    42.5990 O.3          1 ADP1523   0.0000
    15 C2'         -9.5730   -12.8540    42.4860 C.3          1 ADP1523   0.0000
    16 O2'         -8.2690   -12.7390    41.9120 O.3          1 ADP1523   0.0000
    17 C1'         -9.4500   -13.1940    43.9540 C.3          1 ADP1523   0.0000
    18 N9          -9.6290   -14.6420    44.1780 N.pl3        1 ADP1523   0.0000
    19 C8         -10.6980   -15.3600    43.7960 C.2          1 ADP1523   0.0000
    20 N7         -10.5640   -16.6520    44.1690 N.2          1 ADP1523   0.0000
    21 C5          -9.3930   -16.7730    44.7990 C.ar         1 ADP1523   0.0000
    22 C6          -8.6480   -17.8680    45.4460 C.ar         1 ADP1523   0.0000
    23 N6          -9.1530   -19.1310    45.4880 N.pl3        1 ADP1523   0.0000
    24 N1          -7.4490   -17.5530    45.9910 N.ar         1 ADP1523   0.0000
    25 C2          -6.9400   -16.3050    45.9670 C.ar         1 ADP1523   0.0000
    26 N3          -7.5650   -15.2690    45.3910 N.ar         1 ADP1523   0.0000
    27 C4          -8.7690   -15.4410    44.7980 C.ar         1 ADP1523   0.0000
    28 H5'1       -13.1042   -12.1231    44.2837 H            1 ADP1523   0.0000
    29 H5'2       -13.0403   -11.1859    42.9480 H            1 ADP1523   0.0000
    30 H4'        -11.1196   -10.6840    44.2108 H            1 ADP1523   0.0000
    31 H3'        -10.9258   -11.4572    41.6788 H            1 ADP1523   0.0000
    32 H5          -9.9738    -9.5927    42.7103 H            1 ADP1523   0.0000
    33 H2'        -10.0980   -13.5603    42.0111 H            1 ADP1523   0.0000
    34 H7          -8.3200   -12.9201    40.9299 H            1 ADP1523   0.0000
    35 H1'         -8.5785   -12.8756    44.3269 H            1 ADP1523   0.0000
    36 H9         -11.4852   -14.9893    43.3031 H            1 ADP1523   0.0000
    37 H10         -8.6344   -19.8624    45.9310 H            1 ADP1523   0.0000
    38 H11        -10.0426   -19.3277    45.0759 H            1 ADP1523   0.0000
    39 H12         -6.0530   -16.1445    46.4000 H            1 ADP1523   0.0000
@<TRIPOS>BOND
     1    1    2      ar
     2    1    3      ar
     3    1    4      ar
     4    1    8       1
     5    5    6      ar
     6    5    7      ar
     7    5    8       1
     8    5    9       1
     9    9   10       1
    10   10   11       1
    11   11   12       1
    12   11   13       1
    13   12   17       1
    14   13   14       1
    15   13   15       1
    16   15   16       1
    17   15   17       1
    18   17   18       1
    19   18   19       1
    20   18   27       1
    21   19   20       2
    22   20   21       1
    23   21   22      ar
    24   21   27      ar
    25   22   23       1
    26   22   24      ar
    27   24   25      ar
    28   25   26      ar
    29   26   27      ar
    30   25   39       1
    31   23   38       1
    32   23   37       1
    33   10   28       1
    34   10   29       1
    35   11   30       1
    36   13   31       1
    37   14   32       1
    38   15   33       1
    39   16   34       1
    40   17   35       1
    41   19   36       1
@<TRIPOS>SUBSTRUCTURE
     1 ADP1523     1 GROUP             4 A     ADP     0 **** ADP A1523
