@<TRIPOS>MOLECULE
3qwp_SAM_1_ligand
   50    52     1     0     0
SMALL
NO_CHARGES


@<TRIPOS>ATOM
     1 N           11.0700   -14.7360   -23.1300 N.4          1 SAM510   1.0000
     2 CA          10.8420   -14.5920   -21.6360 C.3          1 SAM510   0.0000
     3 C            9.9020   -15.6500   -21.1140 C.2          1 SAM510   0.0000
     4 O            9.5070   -16.5210   -21.9090 O.co2        1 SAM510   0.0000
     5 OXT          9.5750   -15.6950   -19.9230 O.co2        1 SAM510  -1.0000
     6 CB          10.4700   -13.1790   -21.1910 C.3          1 SAM510   0.0000
     7 CG          11.7410   -12.2840   -21.0580 C.3          1 SAM510   0.0000
     8 SD          12.7580   -12.8640   -19.6420 S.3          1 SAM510   1.0000
     9 CE          12.9190   -11.2960   -18.7180 C.3          1 SAM510   0.0000
    10 C5'         14.4300   -12.9070   -20.3650 C.3          1 SAM510   0.0000
    11 C4'         14.6580   -14.1880   -21.1460 C.3          1 SAM510   0.0000
    12 O4'         13.9590   -14.0970   -22.3830 O.3          1 SAM510   0.0000
    13 C3'         16.1220   -14.3430   -21.5770 C.3          1 SAM510   0.0000
    14 O3'         16.9010   -15.0020   -20.5880 O.3          1 SAM510   0.0000
    15 C2'         15.9820   -15.1790   -22.8410 C.3          1 SAM510   0.0000
    16 O2'         15.5670   -16.5340   -22.5360 O.3          1 SAM510   0.0000
    17 C1'         14.7430   -14.5630   -23.4870 C.3          1 SAM510   0.0000
    18 N9          15.0840   -13.3620   -24.3330 N.pl3        1 SAM510   0.0000
    19 C8          14.8350   -12.0260   -24.0460 C.2          1 SAM510   0.0000
    20 N7          15.1480   -11.2920   -25.1140 N.2          1 SAM510   0.0000
    21 C5          15.5300   -12.1090   -26.1330 C.ar         1 SAM510   0.0000
    22 C6          16.0080   -11.8700   -27.4000 C.ar         1 SAM510   0.0000
    23 N6          16.0930   -10.6520   -27.9550 N.pl3        1 SAM510   0.0000
    24 N1          16.4020   -12.9540   -28.1410 N.ar         1 SAM510   0.0000
    25 C2          16.3310   -14.2120   -27.6460 C.ar         1 SAM510   0.0000
    26 N3          15.8880   -14.4660   -26.3840 N.ar         1 SAM510   0.0000
    27 C4          15.5020   -13.4070   -25.6510 C.ar         1 SAM510   0.0000
    28 H1          11.6958   -14.0212   -23.4421 H            1 SAM510   0.0000
    29 H2          11.4670   -15.6336   -23.3216 H            1 SAM510   0.0000
    30 HA          11.7259   -14.7840   -21.2096 H            1 SAM510   0.0000
    31 HB1         10.0084   -13.2257   -20.3052 H            1 SAM510   0.0000
    32 HB2          9.8540   -12.7744   -21.8670 H            1 SAM510   0.0000
    33 HG1         11.4653   -11.3353   -20.9032 H            1 SAM510   0.0000
    34 HG2         12.2783   -12.3419   -21.8994 H            1 SAM510   0.0000
    35 HE1         13.4636   -11.4494   -17.8935 H            1 SAM510   0.0000
    36 HE2         13.3708   -10.6146   -19.2939 H            1 SAM510   0.0000
    37 HE3         12.0108   -10.9658   -18.4610 H            1 SAM510   0.0000
    38 H5'1        15.1049   -12.8490   -19.6294 H            1 SAM510   0.0000
    39 H5'2        14.5395   -12.1262   -20.9801 H            1 SAM510   0.0000
    40 H4'         14.3542   -14.9839   -20.6223 H            1 SAM510   0.0000
    41 H3'         16.5172   -13.4501   -21.7928 H            1 SAM510   0.0000
    42 H15         17.8454   -15.0827   -20.9067 H            1 SAM510   0.0000
    43 H2'         16.7905   -15.1397   -23.4282 H            1 SAM510   0.0000
    44 H17         16.2602   -17.1765   -22.8628 H            1 SAM510   0.0000
    45 H1'         14.2411   -15.2446   -24.0195 H            1 SAM510   0.0000
    46 H19         14.4794   -11.6728   -23.1806 H            1 SAM510   0.0000
    47 H20         16.4512   -10.5493   -28.8830 H            1 SAM510   0.0000
    48 H21         15.7982    -9.8466   -27.4408 H            1 SAM510   0.0000
    49 H22         16.6123   -14.9775   -28.2246 H            1 SAM510   0.0000
    50 H23         10.1974   -14.6480   -23.6104 H            1 SAM510   0.0000
@<TRIPOS>BOND
     1    1    2       1
     2    2    3       1
     3    2    6       1
     4    3    4      ar
     5    3    5      ar
     6    6    7       1
     7    7    8       1
     8    8    9       1
     9    8   10       1
    10   10   11       1
    11   11   12       1
    12   11   13       1
    13   12   17       1
    14   13   14       1
    15   13   15       1
    16   15   16       1
    17   15   17       1
    18   17   18       1
    19   18   19       1
    20   18   27       1
    21   19   20       2
    22   20   21       1
    23   21   22      ar
    24   21   27      ar
    25   22   23       1
    26   22   24      ar
    27   24   25      ar
    28   25   26      ar
    29   26   27      ar
    30    1   28       1
    31    1   29       1
    32    2   30       1
    33    1   50       1
    34    6   31       1
    35    6   32       1
    36    7   33       1
    37    7   34       1
    38    9   35       1
    39    9   36       1
    40    9   37       1
    41   10   38       1
    42   10   39       1
    43   11   40       1
    44   13   41       1
    45   14   42       1
    46   15   43       1
    47   16   44       1
    48   17   45       1
    49   19   46       1
    50   23   47       1
    51   23   48       1
    52   25   49       1
@<TRIPOS>SUBSTRUCTURE
     1 SAM510      1 GROUP             4 A     SAM     0 **** SAM A 510
