@<TRIPOS>MOLECULE
4k9u_5AW_2_ligand
   77    78     1     0     0
SMALL
NO_CHARGES


@<TRIPOS>ATOM
     1 O25         22.7040    32.6770     6.0120 O.2          1 5AW603   0.0000
     2 C24         22.8390    31.8290     6.8850 C.2          1 5AW603   0.0000
     3 O26         21.6660    31.4170     7.6600 O.3          1 5AW603   0.0000
     4 C27         20.4620    32.1990     7.6520 C.3          1 5AW603   0.0000
     5 C28         20.0590    32.6540     9.0420 C.2          1 5AW603   0.0000
     6 S32         18.7360    31.8290     9.7870 S.3          1 5AW603   0.0000
     7 C31         18.7840    32.7560    11.2550 C.2          1 5AW603   0.0000
     8 N30         19.7990    33.6620    11.1150 N.2          1 5AW603   0.0000
     9 C29         20.5070    33.6310     9.9300 C.2          1 5AW603   0.0000
    10 N23         24.0290    31.2810     7.1660 N.am         1 5AW603   0.0000
    11 C21         24.6460    30.1650     6.4490 C.3          1 5AW603   0.0000
    12 C22         24.6530    30.3590     4.9360 C.3          1 5AW603   0.0000
    13 C20         26.0840    29.9670     6.9240 C.3          1 5AW603   0.0000
    14 C19         26.1670    29.0140     8.1200 C.3          1 5AW603   0.0000
    15 C17         27.5890    28.4960     8.3700 C.3          1 5AW603   0.0000
    16 C18         28.0110    27.6610     7.1710 C.3          1 5AW603   0.0000
    17 N16         27.7750    27.6810     9.5800 N.am         1 5AW603   0.0000
    18 C14         27.7100    28.0530    10.8770 C.2          1 5AW603   0.0000
    19 O15         26.7990    28.7420    11.3080 O.2          1 5AW603   0.0000
    20 C13         28.7660    27.5980    11.8790 C.3          1 5AW603   0.0000
    21 C33         29.5190    26.3000    11.5090 C.3          1 5AW603   0.0000
    22 C35         30.4620    25.8360    12.6190 C.3          1 5AW603   0.0000
    23 C34         28.6090    25.1310    11.1430 C.3          1 5AW603   0.0000
    24 N12         29.7030    28.6840    12.1830 N.am         1 5AW603   0.0000
    25 C10         30.0790    29.0800    13.4130 C.2          1 5AW603   0.0000
    26 O11         29.4620    28.7380    14.4230 O.2          1 5AW603   0.0000
    27 N08         31.1660    29.8720    13.5140 N.am         1 5AW603   0.0000
    28 C09         31.2590    31.1800    12.7810 C.3          1 5AW603   0.0000
    29 C07         32.3020    29.4520    14.3690 C.3          1 5AW603   0.0000
    30 C06         33.5100    30.3710    14.3710 C.2          1 5AW603   0.0000
    31 N05         33.4590    31.6880    14.7760 N.2          1 5AW603   0.0000
    32 C36         34.7840    29.9290    13.9720 C.2          1 5AW603   0.0000
    33 S37         35.8600    31.2720    14.1380 S.3          1 5AW603   0.0000
    34 C04         34.6390    32.3530    14.7160 C.2          1 5AW603   0.0000
    35 C02         35.0510    33.7460    15.0300 C.3          1 5AW603   0.0000
    36 C03         34.3800    34.7120    14.0570 C.3          1 5AW603   0.0000
    37 C01         34.6830    34.1020    16.4700 C.3          1 5AW603   0.0000
    38 H1          19.7225    31.6461     7.2680 H            1 5AW603   0.0000
    39 H2          20.6069    33.0059     7.0793 H            1 5AW603   0.0000
    40 H3          18.1855    32.6482    12.0488 H            1 5AW603   0.0000
    41 H4          21.2669    34.2490     9.7284 H            1 5AW603   0.0000
    42 H5          24.5401    31.6688     7.9330 H            1 5AW603   0.0000
    43 H6          24.1295    29.3343     6.6567 H            1 5AW603   0.0000
    44 H7          25.0847    29.5690     4.5006 H            1 5AW603   0.0000
    45 H8          23.7129    30.4485     4.6071 H            1 5AW603   0.0000
    46 H9          25.1660    31.1867     4.7084 H            1 5AW603   0.0000
    47 H10         26.4608    30.8539     7.1912 H            1 5AW603   0.0000
    48 H11         26.6233    29.5887     6.1717 H            1 5AW603   0.0000
    49 H12         25.5679    28.2321     7.9476 H            1 5AW603   0.0000
    50 H13         25.8554    29.4990     8.9371 H            1 5AW603   0.0000
    51 H14         28.2008    29.2848     8.4298 H            1 5AW603   0.0000
    52 H15         28.9376    27.3139     7.3160 H            1 5AW603   0.0000
    53 H16         27.3805    26.8926     7.0615 H            1 5AW603   0.0000
    54 H17         27.9924    28.2275     6.3471 H            1 5AW603   0.0000
    55 H18         27.9783    26.7150     9.4200 H            1 5AW603   0.0000
    56 H19         28.2779    27.4044    12.7300 H            1 5AW603   0.0000
    57 H20         30.0811    26.5012    10.7067 H            1 5AW603   0.0000
    58 H21         30.9244    24.9963    12.3342 H            1 5AW603   0.0000
    59 H22         31.1421    26.5470    12.7975 H            1 5AW603   0.0000
    60 H23         29.9363    25.6611    13.4515 H            1 5AW603   0.0000
    61 H24         29.1668    24.3323    10.9173 H            1 5AW603   0.0000
    62 H25         28.0158    24.9149    11.9185 H            1 5AW603   0.0000
    63 H26         28.0481    25.3797    10.3534 H            1 5AW603   0.0000
    64 H27         30.0983    29.1746    11.4064 H            1 5AW603   0.0000
    65 H28         32.1362    31.6147    12.9848 H            1 5AW603   0.0000
    66 H29         31.1887    31.0164    11.7970 H            1 5AW603   0.0000
    67 H30         30.5140    31.7796    13.0733 H            1 5AW603   0.0000
    68 H31         32.6035    28.5513    14.0561 H            1 5AW603   0.0000
    69 H32         31.9682    29.3837    15.3092 H            1 5AW603   0.0000
    70 H33         35.0224    29.0118    13.6528 H            1 5AW603   0.0000
    71 H34         36.0426    33.8197    14.9239 H            1 5AW603   0.0000
    72 H35         34.6592    35.6481    14.2709 H            1 5AW603   0.0000
    73 H36         34.6546    34.4877    13.1220 H            1 5AW603   0.0000
    74 H37         33.3866    34.6330    14.1407 H            1 5AW603   0.0000
    75 H38         34.9668    35.0410    16.6642 H            1 5AW603   0.0000
    76 H39         33.6936    34.0210    16.5910 H            1 5AW603   0.0000
    77 H40         35.1477    33.4769    17.0971 H            1 5AW603   0.0000
@<TRIPOS>BOND
     1    1    2       2
     2    2    3       1
     3    2   10      am
     4    3    4       1
     5    4    5       1
     6    5    6       1
     7    5    9       2
     8    6    7       1
     9    7    8       2
    10    8    9       1
    11   10   11       1
    12   11   12       1
    13   11   13       1
    14   13   14       1
    15   14   15       1
    16   15   16       1
    17   15   17       1
    18   17   18      am
    19   18   19       2
    20   18   20       1
    21   20   21       1
    22   20   24       1
    23   21   22       1
    24   21   23       1
    25   24   25      am
    26   25   26       2
    27   25   27      am
    28   27   28       1
    29   27   29       1
    30   29   30       1
    31   30   31       1
    32   30   32       2
    33   31   34       2
    34   32   33       1
    35   33   34       1
    36   34   35       1
    37   35   36       1
    38   35   37       1
    39    4   38       1
    40    4   39       1
    41    7   40       1
    42    9   41       1
    43   10   42       1
    44   11   43       1
    45   12   44       1
    46   12   45       1
    47   12   46       1
    48   13   47       1
    49   13   48       1
    50   14   49       1
    51   14   50       1
    52   15   51       1
    53   16   52       1
    54   16   53       1
    55   16   54       1
    56   17   55       1
    57   20   56       1
    58   21   57       1
    59   22   58       1
    60   22   59       1
    61   22   60       1
    62   23   61       1
    63   23   62       1
    64   23   63       1
    65   24   64       1
    66   28   65       1
    67   28   66       1
    68   28   67       1
    69   29   68       1
    70   29   69       1
    71   32   70       1
    72   35   71       1
    73   36   72       1
    74   36   73       1
    75   36   74       1
    76   37   75       1
    77   37   76       1
    78   37   77       1
@<TRIPOS>SUBSTRUCTURE
     1 5AW603      1 GROUP             4 A     5AW     0 **** 5AW A 603
