@<TRIPOS>MOLECULE
4fou_C2E_1_ligand
   70    76     1     0     0
SMALL
NO_CHARGES


@<TRIPOS>ATOM
     1 P1          15.6790   -47.1110     0.7720 P.3          1 C2E701   0.0000
     2 O2P         16.7900   -47.0320    -0.1660 O.3          1 C2E701   0.0000
     3 O1P         15.2390   -45.9640     1.6120 O.2          1 C2E701   0.0000
     4 O5'         15.8430   -48.4120     1.7180 O.3          1 C2E701   0.0000
     5 C5'         16.8680   -48.6240     2.6490 C.3          1 C2E701   0.0000
     6 C4'         16.4160   -49.4570     3.8460 C.3          1 C2E701   0.0000
     7 O4'         17.4380   -49.3300     4.8220 O.3          1 C2E701   0.0000
     8 C3'         15.1250   -48.9910     4.5200 C.3          1 C2E701   0.0000
     9 O3'         14.2050   -50.0900     4.6510 O.3          1 C2E701   0.0000
    10 C2'         15.5100   -48.5080     5.8940 C.3          1 C2E701   0.0000
    11 O2'         14.6870   -49.0450     6.9290 O.3          1 C2E701   0.0000
    12 C1'         16.9690   -48.9180     6.0890 C.3          1 C2E701   0.0000
    13 N9          17.8880   -47.8310     6.4750 N.pl3        1 C2E701   0.0000
    14 C8          18.8170   -47.8350     7.4510 C.2          1 C2E701   0.0000
    15 N7          19.4680   -46.6420     7.4990 N.2          1 C2E701   0.0000
    16 C5          18.9950   -45.8380     6.5130 C.2          1 C2E701   0.0000
    17 C6          19.2220   -44.5410     6.0410 C.2          1 C2E701   0.0000
    18 O6          20.1420   -43.7080     6.5330 O.2          1 C2E701   0.0000
    19 N1          18.5210   -44.0790     5.0170 N.pl3        1 C2E701   0.0000
    20 C2          17.5760   -44.8400     4.4240 C.2          1 C2E701   0.0000
    21 N2          16.9080   -44.3190     3.3740 N.pl3        1 C2E701   0.0000
    22 N3          17.2610   -46.0880     4.8560 N.2          1 C2E701   0.0000
    23 C4          17.9310   -46.6250     5.8720 C.2          1 C2E701   0.0000
    24 P11         12.6300   -49.8980     4.4310 P.3          1 C2E701   0.0000
    25 O21         12.1070   -51.3190     4.2810 O.2          1 C2E701   0.0000
    26 O11         12.1230   -48.8720     5.3790 O.3          1 C2E701   0.0000
    27 O5A         12.4870   -49.2340     2.9950 O.3          1 C2E701   0.0000
    28 C5A         12.7080   -49.9330     1.7970 C.3          1 C2E701   0.0000
    29 C4A         12.4440   -49.0530     0.6060 C.3          1 C2E701   0.0000
    30 O4A         11.0790   -48.6860     0.6770 O.3          1 C2E701   0.0000
    31 C3A         13.1900   -47.7280     0.5320 C.3          1 C2E701   0.0000
    32 O3A         14.4750   -47.7770    -0.0650 O.3          1 C2E701   0.0000
    33 C2A         12.2500   -46.9220    -0.3110 C.3          1 C2E701   0.0000
    34 O2A         12.5100   -47.3130    -1.6320 O.3          1 C2E701   0.0000
    35 C1A         10.8630   -47.4340     0.0670 C.3          1 C2E701   0.0000
    36 N91         10.2550   -46.5840     1.0950 N.pl3        1 C2E701   0.0000
    37 C81         10.4780   -46.6280     2.4070 C.2          1 C2E701   0.0000
    38 N71          9.7630   -45.6610     3.0610 N.2          1 C2E701   0.0000
    39 C51          9.0450   -44.9900     2.1210 C.2          1 C2E701   0.0000
    40 C61          8.1500   -43.9670     2.0980 C.2          1 C2E701   0.0000
    41 O61          7.8340   -43.3840     3.2630 O.2          1 C2E701   0.0000
    42 N11          7.6380   -43.5000     0.9220 N.pl3        1 C2E701   0.0000
    43 C21          7.9950   -44.0880    -0.2580 C.2          1 C2E701   0.0000
    44 N21          7.4640   -43.6850    -1.4470 N.pl3        1 C2E701   0.0000
    45 N31          8.8660   -45.1090    -0.2820 N.2          1 C2E701   0.0000
    46 C41          9.4060   -45.6000     0.8330 C.2          1 C2E701   0.0000
    47 H2P         17.4602   -46.3683     0.1662 H            1 C2E701   0.0000
    48 H5'1        17.1879   -47.7362     2.9799 H            1 C2E701   0.0000
    49 H5'2        17.6199   -49.1006     2.1936 H            1 C2E701   0.0000
    50 H4'         16.3270   -50.4154     3.5747 H            1 C2E701   0.0000
    51 H3'         14.7075   -48.2491     3.9954 H            1 C2E701   0.0000
    52 H2'         15.4482   -47.5102     5.9158 H            1 C2E701   0.0000
    53 H7          13.7711   -49.2219     6.5686 H            1 C2E701   0.0000
    54 H1'         17.0317   -49.6721     6.7427 H            1 C2E701   0.0000
    55 H9          19.0023   -48.6088     8.0567 H            1 C2E701   0.0000
    56 H10         18.6937   -43.1541     4.6782 H            1 C2E701   0.0000
    57 H11         16.2023   -44.8574     2.9134 H            1 C2E701   0.0000
    58 H12         17.1185   -43.3945     3.0564 H            1 C2E701   0.0000
    59 H5A1        12.0969   -50.7238     1.7617 H            1 C2E701   0.0000
    60 H5A2        13.6579   -50.2443     1.7700 H            1 C2E701   0.0000
    61 H4A         12.6052   -49.5724    -0.2332 H            1 C2E701   0.0000
    62 H3A         13.2560   -47.3253     1.4449 H            1 C2E701   0.0000
    63 H2A         12.3512   -45.9370    -0.1711 H            1 C2E701   0.0000
    64 H18         12.8032   -46.5182    -2.1633 H            1 C2E701   0.0000
    65 H1A         10.2724   -47.5157    -0.7358 H            1 C2E701   0.0000
    66 H20         11.0876   -47.2815     2.8556 H            1 C2E701   0.0000
    67 H21          7.0022   -42.7282     0.9244 H            1 C2E701   0.0000
    68 H22          7.7429   -44.1328    -2.2965 H            1 C2E701   0.0000
    69 H23          6.7956   -42.9416    -1.4697 H            1 C2E701   0.0000
    70 H24         11.7227   -48.1128     4.8658 H            1 C2E701   0.0000
@<TRIPOS>BOND
     1    1    2       1
     2    1    3       2
     3    1    4       1
     4    1   32       1
     5    4    5       1
     6    5    6       1
     7    6    7       1
     8    6    8       1
     9    7   12       1
    10    8    9       1
    11    8   10       1
    12    9   24       1
    13   10   11       1
    14   10   12       1
    15   12   13       1
    16   13   14       1
    17   13   23       1
    18   14   15       2
    19   15   16       1
    20   16   17       1
    21   16   23       2
    22   17   18       2
    23   17   19       1
    24   19   20       1
    25   20   21       1
    26   20   22       2
    27   22   23       1
    28   24   25       2
    29   24   26       1
    30   24   27       1
    31   27   28       1
    32   28   29       1
    33   29   30       1
    34   29   31       1
    35   30   35       1
    36   31   32       1
    37   31   33       1
    38   33   34       1
    39   33   35       1
    40   35   36       1
    41   36   37       1
    42   36   46       1
    43   37   38       2
    44   38   39       1
    45   39   40       1
    46   39   46       2
    47   40   41       2
    48   40   42       1
    49   42   43       1
    50   43   44       1
    51   43   45       2
    52   45   46       1
    53    2   47       1
    54    5   48       1
    55    5   49       1
    56    6   50       1
    57    8   51       1
    58   10   52       1
    59   11   53       1
    60   12   54       1
    61   14   55       1
    62   19   56       1
    63   21   57       1
    64   21   58       1
    65   44   69       1
    66   28   59       1
    67   28   60       1
    68   29   61       1
    69   31   62       1
    70   33   63       1
    71   34   64       1
    72   35   65       1
    73   37   66       1
    74   42   67       1
    75   44   68       1
    76   26   70       1
@<TRIPOS>SUBSTRUCTURE
     1 C2E701      1 GROUP             4 A     C2E     0 **** C2E A 701
