@<TRIPOS>MOLECULE
2hf8_GSP_2_ligand
   44    46     1     0     0
SMALL
NO_CHARGES


@<TRIPOS>ATOM
     1 PG           5.4840    26.7750   -20.3540 P.3          1 GSP300   0.0000
     2 O3B          5.1600    27.3810   -21.8140 O.3          1 GSP300   0.0000
     3 S1G          4.0420    26.1830   -19.6550 S.2          1 GSP300   0.0000
     4 O2G          6.4800    25.6090   -20.5030 O.co2        1 GSP300  -1.0000
     5 O3G          6.0950    27.8450   -19.4390 O.co2        1 GSP300  -1.0000
     6 PB           4.7540    28.9160   -22.1230 P.3          1 GSP300   0.0000
     7 O1B          3.3050    29.0980   -21.9050 O.co2        1 GSP300   0.0000
     8 O2B          5.5590    29.9180   -21.3900 O.co2        1 GSP300  -1.0000
     9 PA           6.3180    29.5870   -24.4400 P.3          1 GSP300   0.0000
    10 O1A          6.3700    31.0590   -24.4010 O.co2        1 GSP300   0.0000
    11 O2A          7.5660    28.9770   -23.9180 O.co2        1 GSP300  -1.0000
    12 O3A          5.0090    29.0210   -23.7030 O.3          1 GSP300   0.0000
    13 O5'          6.0620    29.1260   -25.9550 O.3          1 GSP300   0.0000
    14 C5'          6.0540    27.7650   -26.3290 C.3          1 GSP300   0.0000
    15 C4'          6.4520    27.6720   -27.7990 C.3          1 GSP300   0.0000
    16 O4'          5.4490    28.2690   -28.5980 O.3          1 GSP300   0.0000
    17 C3'          7.7400    28.4250   -28.1080 C.3          1 GSP300   0.0000
    18 O3'          8.5240    27.6120   -28.9490 O.3          1 GSP300   0.0000
    19 C2'          7.2960    29.6770   -28.8460 C.3          1 GSP300   0.0000
    20 O2'          8.2280    30.0850   -29.8190 O.3          1 GSP300   0.0000
    21 C1'          6.0080    29.2090   -29.4940 C.3          1 GSP300   0.0000
    22 N9           4.9900    30.2460   -29.7060 N.pl3        1 GSP300   0.0000
    23 C8           4.4030    31.0610   -28.7660 C.2          1 GSP300   0.0000
    24 N7           3.4830    31.8320   -29.3930 N.2          1 GSP300   0.0000
    25 C5           3.4770    31.5090   -30.7130 C.2          1 GSP300   0.0000
    26 C6           2.7480    31.9720   -31.8050 C.2          1 GSP300   0.0000
    27 O6           1.9140    32.8540   -31.6520 O.2          1 GSP300   0.0000
    28 N1           2.9680    31.4290   -33.0610 N.pl3        1 GSP300   0.0000
    29 C2           3.9100    30.4260   -33.2340 C.2          1 GSP300   0.0000
    30 N2           4.1330    29.8960   -34.4360 N.pl3        1 GSP300   0.0000
    31 N3           4.6280    29.9720   -32.1510 N.2          1 GSP300   0.0000
    32 C4           4.4170    30.5040   -30.9160 C.2          1 GSP300   0.0000
    33 H5'1         5.1381    27.3843   -26.2016 H            1 GSP300   0.0000
    34 H5'2         6.7074    27.2561   -25.7686 H            1 GSP300   0.0000
    35 H4'          6.5566    26.7114   -28.0566 H            1 GSP300   0.0000
    36 H3'          8.2324    28.6565   -27.2690 H            1 GSP300   0.0000
    37 H5           8.3013    27.8078   -29.9040 H            1 GSP300   0.0000
    38 H2'          7.1147    30.4191   -28.2007 H            1 GSP300   0.0000
    39 H7           7.8935    30.9091   -30.2761 H            1 GSP300   0.0000
    40 H1'          6.2147    28.7604   -30.3635 H            1 GSP300   0.0000
    41 H9           4.6182    31.0807   -27.7896 H            1 GSP300   0.0000
    42 H10          2.4453    31.7618   -33.8458 H            1 GSP300   0.0000
    43 H11          4.8156    29.1734   -34.5450 H            1 GSP300   0.0000
    44 H12          3.6178    30.2209   -35.2291 H            1 GSP300   0.0000
@<TRIPOS>BOND
     1    1    2       1
     2    1    3       2
     3    1    4      ar
     4    1    5      ar
     5    2    6       1
     6    6    7      ar
     7    6    8      ar
     8    6   12       1
     9    9   10      ar
    10    9   11      ar
    11    9   12       1
    12    9   13       1
    13   13   14       1
    14   14   15       1
    15   15   16       1
    16   15   17       1
    17   16   21       1
    18   17   18       1
    19   17   19       1
    20   19   20       1
    21   19   21       1
    22   21   22       1
    23   22   23       1
    24   22   32       1
    25   23   24       2
    26   24   25       1
    27   25   26       1
    28   25   32       2
    29   26   27       2
    30   26   28       1
    31   28   29       1
    32   29   30       1
    33   29   31       2
    34   31   32       1
    35   30   44       1
    36   30   43       1
    37   28   42       1
    38   23   41       1
    39   14   33       1
    40   14   34       1
    41   15   35       1
    42   17   36       1
    43   18   37       1
    44   19   38       1
    45   20   39       1
    46   21   40       1
@<TRIPOS>SUBSTRUCTURE
     1 GSP300      1 GROUP             4 B     GSP     0 **** GSP B 300
