@<TRIPOS>MOLECULE
1oq5_CEL_1_ligand
   39    41     1     0     0
SMALL
NO_CHARGES


@<TRIPOS>ATOM
     1 S1          15.2890     2.8460    16.6520 S.o2         1 CEL701   0.0000
     2 C15         15.9880     4.1960    15.7120 C.ar         1 CEL701   0.0000
     3 C14         15.1860     5.2150    15.2560 C.ar         1 CEL701   0.0000
     4 C13         15.7540     6.3000    14.6040 C.ar         1 CEL701   0.0000
     5 C12         17.1130     6.3320    14.4410 C.ar         1 CEL701   0.0000
     6 C17         17.9260     5.3110    14.8920 C.ar         1 CEL701   0.0000
     7 C16         17.3580     4.2110    15.5450 C.ar         1 CEL701   0.0000
     8 N2          17.6970     7.5280    13.8490 N.pl3        1 CEL701   0.0000
     9 C3          17.5200     8.1910    12.6670 C.2          1 CEL701   0.0000
    10 C5          16.7620     7.8190    11.4780 C.ar         1 CEL701   0.0000
    11 C10         16.8180     6.4970    11.0640 C.ar         1 CEL701   0.0000
    12 C9          16.1520     6.0970     9.9300 C.ar         1 CEL701   0.0000
    13 C8          15.3810     6.9930     9.2250 C.ar         1 CEL701   0.0000
    14 C11         14.6630     6.5370     7.9810 C.3          1 CEL701   0.0000
    15 C7          15.2560     8.3000     9.6820 C.ar         1 CEL701   0.0000
    16 C6          15.9710     8.7060    10.7780 C.ar         1 CEL701   0.0000
    17 C2          18.3570     9.3030    12.7050 C.2          1 CEL701   0.0000
    18 C1          18.9230     9.2700    13.9750 C.2          1 CEL701   0.0000
    19 C4          19.8490    10.2670    14.5820 C.3          1 CEL701   0.0000
    20 F3          21.0600    10.2580    14.0890 F            1 CEL701   0.0000
    21 F2          19.9160    10.2130    15.9080 F            1 CEL701   0.0000
    22 F1          19.3800    11.4890    14.3610 F            1 CEL701   0.0000
    23 N1          18.5310     8.2110    14.6570 N.2          1 CEL701   0.0000
    24 N3          15.8130     1.4840    16.0220 N.3          1 CEL701  -1.0000
    25 O2          13.8900     2.9120    16.5270 O.2          1 CEL701   0.0000
    26 O1          15.8140     3.0120    17.9850 O.2          1 CEL701   0.0000
    27 H1          14.1964     5.1744    15.3938 H            1 CEL701   0.0000
    28 H2          15.1818     7.0443    14.2597 H            1 CEL701   0.0000
    29 H3          18.9152     5.3573    14.7528 H            1 CEL701   0.0000
    30 H4          17.9268     3.4598    15.8799 H            1 CEL701   0.0000
    31 H5          17.3451     5.8316    11.5926 H            1 CEL701   0.0000
    32 H6          16.2280     5.1507     9.6158 H            1 CEL701   0.0000
    33 H7          14.1516     7.3030     7.5916 H            1 CEL701   0.0000
    34 H8          15.3302     6.2076     7.3129 H            1 CEL701   0.0000
    35 H9          14.0308     5.7978     8.2131 H            1 CEL701   0.0000
    36 H10         14.6475     8.9404     9.2133 H            1 CEL701   0.0000
    37 H11         15.9186     9.6595    11.0748 H            1 CEL701   0.0000
    38 H12         18.5156     9.9748    11.9814 H            1 CEL701   0.0000
    39 H13         16.3224     0.9713    16.7131 H            1 CEL701   0.0000
@<TRIPOS>BOND
     1    1    2       1
     2    1   24       1
     3    1   25       2
     4    1   26       2
     5    2    3      ar
     6    2    7      ar
     7    3    4      ar
     8    4    5      ar
     9    5    6      ar
    10    5    8       1
    11    6    7      ar
    12    8    9       1
    13    8   23       1
    14    9   10       1
    15    9   17       2
    16   10   11      ar
    17   10   16      ar
    18   11   12      ar
    19   12   13      ar
    20   13   14       1
    21   13   15      ar
    22   15   16      ar
    23   17   18       1
    24   18   19       1
    25   18   23       2
    26   19   20       1
    27   19   21       1
    28   19   22       1
    29    3   27       1
    30    4   28       1
    31    6   29       1
    32    7   30       1
    33   11   31       1
    34   12   32       1
    35   14   33       1
    36   14   34       1
    37   14   35       1
    38   15   36       1
    39   16   37       1
    40   17   38       1
    41   24   39       1
@<TRIPOS>SUBSTRUCTURE
     1 CEL701      1 GROUP             4 A     CEL     0 **** CEL A 701
