@<TRIPOS>MOLECULE
3i81_EBI_1_ligand
   58    63     1     0     0
SMALL
NO_CHARGES


@<TRIPOS>ATOM
     1 N1         -18.3780     3.4520    13.7700 N.2          1 EBI201   0.0000
     2 C2         -17.6390     3.7730    12.6790 C.2          1 EBI201   0.0000
     3 C3         -17.2040     2.5050    12.1730 C.2          1 EBI201   0.0000
     4 C4         -17.7180     1.4640    13.0040 C.2          1 EBI201   0.0000
     5 N5         -18.4220     2.1130    13.9560 N.pl3        1 EBI201   0.0000
     6 N6         -17.4110     5.1500    12.2280 N.pl3        1 EBI201   0.0000
     7 C7         -17.5350    -0.0710    12.8850 C.3          1 EBI201   0.0000
     8 C8         -18.6680    -0.1660    11.9120 C.3          1 EBI201   0.0000
     9 C9         -17.2610    -0.2710    11.4390 C.3          1 EBI201   0.0000
    10 C10        -15.8040     8.8640    10.0900 C.2          1 EBI201   0.0000
    11 C11        -16.5430     9.2850    11.2170 C.2          1 EBI201   0.0000
    12 C12        -17.0310     8.1530    11.8650 C.2          1 EBI201   0.0000
    13 C13        -16.5550     7.0380    11.0830 C.2          1 EBI201   0.0000
    14 N14        -15.8110     7.5010    10.0080 N.pl3        1 EBI201   0.0000
    15 C15        -16.6790     5.6400    11.1720 C.2          1 EBI201   0.0000
    16 N16        -16.1060     4.7940    10.2630 N.2          1 EBI201   0.0000
    17 N17        -15.2490     6.6110     9.1110 N.2          1 EBI201   0.0000
    18 C18        -15.3930     5.2770     9.2330 C.2          1 EBI201   0.0000
    19 C19        -13.8850     4.9180     7.3560 C.3          1 EBI201   0.0000
    20 C20        -13.2930     3.6710     6.7320 C.3          1 EBI201   0.0000
    21 C21        -14.3100     2.5760     7.0490 C.3          1 EBI201   0.0000
    22 C22        -15.1380     3.0050     8.2610 C.3          1 EBI201   0.0000
    23 N23        -14.8300     4.4390     8.3370 N.pl3        1 EBI201   0.0000
    24 C24        -14.6090     2.0970     9.4260 C.2          1 EBI201   0.0000
    25 N25        -13.5470     2.6210    10.1150 N.am         1 EBI201   0.0000
    26 O26        -15.1490     1.0140     9.6510 O.2          1 EBI201   0.0000
    27 C27        -16.6560     2.8120     8.0030 C.3          1 EBI201   0.0000
    28 C28        -12.8020     1.9700    11.0410 C.ar         1 EBI201   0.0000
    29 C29        -11.3870     2.0410    11.0840 C.ar         1 EBI201   0.0000
    30 C30        -10.6260     1.3750    12.0340 C.ar         1 EBI201   0.0000
    31 C31        -11.3330     0.6180    12.9630 C.ar         1 EBI201   0.0000
    32 N32        -12.7050     0.5260    12.9520 N.ar         1 EBI201   0.0000
    33 C33        -13.4300     1.1870    12.0130 C.ar         1 EBI201   0.0000
    34 F34        -10.5700    -0.0180    13.8730 F            1 EBI201   0.0000
    35 H1         -16.6306     2.3704    11.3649 H            1 EBI201   0.0000
    36 H2         -17.8636     5.8495    12.7810 H            1 EBI201   0.0000
    37 H3         -17.3283    -0.7085    13.6272 H            1 EBI201   0.0000
    38 H4         -19.2103     0.6454    11.6941 H            1 EBI201   0.0000
    39 H5         -19.2590    -0.9727    11.9087 H            1 EBI201   0.0000
    40 H6         -16.9078    -1.1486    11.1149 H            1 EBI201   0.0000
    41 H7         -16.8592     0.4695    10.9003 H            1 EBI201   0.0000
    42 H8         -15.3430     9.4746     9.4461 H            1 EBI201   0.0000
    43 H9         -16.6905    10.2324    11.5009 H            1 EBI201   0.0000
    44 H10        -17.5904     8.1201    12.6933 H            1 EBI201   0.0000
    45 H11        -14.3485     5.4705     6.6633 H            1 EBI201   0.0000
    46 H12        -13.1708     5.4636     7.7944 H            1 EBI201   0.0000
    47 H13        -12.4044     3.4584     7.1384 H            1 EBI201   0.0000
    48 H14        -13.1892     3.7836     5.7438 H            1 EBI201   0.0000
    49 H15        -13.8312     1.7225     7.2546 H            1 EBI201   0.0000
    50 H16        -14.9122     2.4392     6.2624 H            1 EBI201   0.0000
    51 H17        -13.2993     3.5693     9.9167 H            1 EBI201   0.0000
    52 H18        -17.1706     3.1001     8.8106 H            1 EBI201   0.0000
    53 H19        -16.9333     3.3640     7.2166 H            1 EBI201   0.0000
    54 H20        -16.8423     1.8475     7.8156 H            1 EBI201   0.0000
    55 H21        -10.9158     2.5962    10.3986 H            1 EBI201   0.0000
    56 H22         -9.6280     1.4355    12.0501 H            1 EBI201   0.0000
    57 H23        -14.4272     1.1123    12.0173 H            1 EBI201   0.0000
    58 H24        -18.9123     1.6622    14.7019 H            1 EBI201   0.0000
@<TRIPOS>BOND
     1    1    2       2
     2    1    5       1
     3    2    3       1
     4    2    6       1
     5    3    4       2
     6    4    5       1
     7    4    7       1
     8    6   15       1
     9    7    8       1
    10    7    9       1
    11    8    9       1
    12   10   11       2
    13   10   14       1
    14   11   12       1
    15   12   13       2
    16   13   14       1
    17   13   15       1
    18   14   17       1
    19   15   16       2
    20   16   18       1
    21   17   18       2
    22   18   23       1
    23   19   20       1
    24   19   23       1
    25   20   21       1
    26   21   22       1
    27   22   23       1
    28   22   24       1
    29   22   27       1
    30   24   25      am
    31   24   26       2
    32   25   28       1
    33   28   29      ar
    34   28   33      ar
    35   29   30      ar
    36   30   31      ar
    37   31   32      ar
    38   31   34       1
    39   32   33      ar
    40   33   57       1
    41    3   35       1
    42    6   36       1
    43    7   37       1
    44    8   38       1
    45    8   39       1
    46    9   40       1
    47    9   41       1
    48   10   42       1
    49   11   43       1
    50   12   44       1
    51   19   45       1
    52   19   46       1
    53   20   47       1
    54   20   48       1
    55   21   49       1
    56   21   50       1
    57   25   51       1
    58   27   52       1
    59   27   53       1
    60   27   54       1
    61   29   55       1
    62   30   56       1
    63    5   58       1
@<TRIPOS>SUBSTRUCTURE
     1 EBI201      1 GROUP             4 A     EBI     0 **** EBI A 201
