@<TRIPOS>MOLECULE
2bla_CP6_1_ligand
   31    32     1     0     0
SMALL
NO_CHARGES


@<TRIPOS>ATOM
     1 N1          28.2550     2.1360     9.7010 N.ar         1 CP61240   0.0000
     2 C2          29.2990     3.0270     9.3370 C.ar         1 CP61240   0.0000
     3 C3          28.0280     1.8600    11.0540 C.ar         1 CP61240   0.0000
     4 C4          28.8830     2.4860    12.1380 C.ar         1 CP61240   0.0000
     5 C5          29.9630     3.4310    11.6060 C.ar         1 CP61240   0.0000
     6 N6          30.1420     3.6650    10.2720 N.ar         1 CP61240   1.0000
     7 C7          28.6830     2.2360    13.5650 C.ar         1 CP61240   0.0000
     8 C8          27.8600     3.1860    14.3720 C.ar         1 CP61240   0.0000
     9 C9          27.6170     3.0010    15.7810 C.ar         1 CP61240   0.0000
    10 C10         28.1710     1.8830    16.4360 C.ar         1 CP61240   0.0000
    11 C11         28.9840     0.9280    15.6770 C.ar         1 CP61240   0.0000
    12 C12         29.2220     1.1230    14.2670 C.ar         1 CP61240   0.0000
    13 N13         27.0400     1.0210    11.4330 N.pl3        1 CP61240   0.0000
    14 N14         29.5400     3.3060     7.9880 N.pl3        1 CP61240   0.0000
    15 C15         30.8810     4.1440    12.5680 C.3          1 CP61240   0.0000
    16 C16         30.8590     5.6550    12.5910 C.3          1 CP61240   0.0000
    17 CL1         27.9760     1.5590    18.0280 Cl           1 CP61240   0.0000
    18 H1          27.4616     3.9822    13.9167 H            1 CP61240   0.0000
    19 H2          27.0610     3.6593    16.2884 H            1 CP61240   0.0000
    20 H3          29.3773     0.1340    16.1406 H            1 CP61240   0.0000
    21 H4          29.7804     0.4582    13.7708 H            1 CP61240   0.0000
    22 H5          26.8888     0.8326    12.4034 H            1 CP61240   0.0000
    23 H6          26.4596     0.5881    10.7433 H            1 CP61240   0.0000
    24 H7          30.2750     3.9334     7.7307 H            1 CP61240   0.0000
    25 H8          28.9773     2.8782     7.2807 H            1 CP61240   0.0000
    26 H9          31.8156     3.8646    12.3479 H            1 CP61240   0.0000
    27 H10         30.6473     3.8302    13.4883 H            1 CP61240   0.0000
    28 H11         31.5127     5.9876    13.2708 H            1 CP61240   0.0000
    29 H12         31.1090     6.0058    11.6885 H            1 CP61240   0.0000
    30 H13         29.9407     5.9714    12.8289 H            1 CP61240   0.0000
    31 H14         30.8640     4.2829     9.9607 H            1 CP61240   0.0000
@<TRIPOS>BOND
     1    1    2      ar
     2    1    3      ar
     3    2    6      ar
     4    2   14       1
     5    3    4      ar
     6    3   13       1
     7    4    5      ar
     8    4    7       1
     9    5    6      ar
    10    5   15       1
    11    7    8      ar
    12    7   12      ar
    13    8    9      ar
    14    9   10      ar
    15   10   11      ar
    16   10   17       1
    17   11   12      ar
    18   15   16       1
    19    8   18       1
    20    9   19       1
    21   11   20       1
    22   12   21       1
    23   13   22       1
    24   13   23       1
    25   14   24       1
    26   14   25       1
    27   15   26       1
    28   15   27       1
    29   16   28       1
    30   16   29       1
    31   16   30       1
    32    6   31       1
@<TRIPOS>SUBSTRUCTURE
     1 CP61240     1 GROUP             4 A     CP6     0 **** CP6 A1240
