@<TRIPOS>MOLECULE
1wdt_GTP_1_ligand
   45    47     1     0     0
SMALL
NO_CHARGES


@<TRIPOS>ATOM
     1 PG          13.8010    29.7770     9.6000 P.3          1 GTP700   0.0000
     2 O1G         12.4590    30.4040     9.3640 O.co2        1 GTP700   0.0000
     3 O2G         13.8770    28.3110     9.2010 O.co2        1 GTP700  -1.0000
     4 O3G         14.2050    29.8740    11.1190 O.co2        1 GTP700  -1.0000
     5 O3B         14.8460    30.6920     8.6810 O.3          1 GTP700   0.0000
     6 PB          16.4350    30.4730     8.5450 P.3          1 GTP700   0.0000
     7 O1B         17.1930    31.3520     9.4420 O.co2        1 GTP700   0.0000
     8 O2B         16.9170    29.1850     8.1400 O.co2        1 GTP700  -1.0000
     9 O3A         16.6170    31.2640     7.2290 O.3          1 GTP700   0.0000
    10 PA          16.7180    30.8050     5.6930 P.3          1 GTP700   0.0000
    11 O1A         18.1580    30.4960     5.3090 O.co2        1 GTP700   0.0000
    12 O2A         15.5080    30.2240     5.1520 O.co2        1 GTP700  -1.0000
    13 O5'         16.5240    32.2330     4.9750 O.3          1 GTP700   0.0000
    14 C5'         16.3180    33.5630     5.4650 C.3          1 GTP700   0.0000
    15 C4'         16.0660    34.5030     4.2900 C.3          1 GTP700   0.0000
    16 O4'         17.1270    35.4950     4.1780 O.3          1 GTP700   0.0000
    17 C3'         16.0040    33.8210     2.9060 C.3          1 GTP700   0.0000
    18 O3'         15.0010    34.4040     2.0740 O.3          1 GTP700   0.0000
    19 C2'         17.4200    33.9640     2.3890 C.3          1 GTP700   0.0000
    20 O2'         17.4140    34.1120     0.9640 O.3          1 GTP700   0.0000
    21 C1'         17.9620    35.2160     3.0360 C.3          1 GTP700   0.0000
    22 N9          19.3560    35.1650     3.5460 N.pl3        1 GTP700   0.0000
    23 C8          19.9510    34.1310     4.2490 C.2          1 GTP700   0.0000
    24 N7          21.1960    34.3600     4.5700 N.2          1 GTP700   1.0000
    25 C5          21.4530    35.6190     4.0550 C.2          1 GTP700   0.0000
    26 C6          22.6470    36.4170     4.0830 C.2          1 GTP700   0.0000
    27 O6          23.7420    36.1550     4.5910 O.2          1 GTP700   0.0000
    28 N1          22.4810    37.6650     3.4240 N.pl3        1 GTP700   0.0000
    29 C2          21.2930    38.0730     2.8140 C.2          1 GTP700   0.0000
    30 N2          21.3170    39.2810     2.2370 N.pl3        1 GTP700   0.0000
    31 N3          20.1810    37.3350     2.7870 N.2          1 GTP700   0.0000
    32 C4          20.3250    36.1240     3.4190 C.2          1 GTP700   0.0000
    33 H5'1        17.1303    33.8639     5.9647 H            1 GTP700   0.0000
    34 H5'2        15.5271    33.5743     6.0768 H            1 GTP700   0.0000
    35 H4'         15.2015    34.9806     4.4465 H            1 GTP700   0.0000
    36 H3'         15.7995    32.8501     3.0305 H            1 GTP700   0.0000
    37 H5          14.9900    33.9384     1.1890 H            1 GTP700   0.0000
    38 H2'         17.9684    33.1707     2.6537 H            1 GTP700   0.0000
    39 H7          18.2570    33.7296     0.5856 H            1 GTP700   0.0000
    40 H1'         17.8840    35.9732     2.3875 H            1 GTP700   0.0000
    41 H9          19.4716    33.2868     4.4888 H            1 GTP700   0.0000
    42 H10         23.2621    38.2887     3.3954 H            1 GTP700   0.0000
    43 H11         20.4995    39.6342     1.7821 H            1 GTP700   0.0000
    44 H12         22.1525    39.8300     2.2609 H            1 GTP700   0.0000
    45 H13         21.8207    33.7626     5.0728 H            1 GTP700   0.0000
@<TRIPOS>BOND
     1    1    2      ar
     2    1    3      ar
     3    1    4      ar
     4    1    5       1
     5    5    6       1
     6    6    7      ar
     7    6    8      ar
     8    6    9       1
     9    9   10       1
    10   10   11      ar
    11   10   12      ar
    12   10   13       1
    13   13   14       1
    14   14   15       1
    15   15   16       1
    16   15   17       1
    17   16   21       1
    18   17   18       1
    19   17   19       1
    20   19   20       1
    21   19   21       1
    22   21   22       1
    23   22   23       1
    24   22   32       1
    25   23   24       2
    26   24   25       1
    27   25   26       1
    28   25   32       2
    29   26   27       2
    30   26   28       1
    31   28   29       1
    32   29   30       1
    33   29   31       2
    34   31   32       1
    35   30   44       1
    36   30   43       1
    37   28   42       1
    38   23   41       1
    39   14   33       1
    40   14   34       1
    41   15   35       1
    42   17   36       1
    43   18   37       1
    44   19   38       1
    45   20   39       1
    46   21   40       1
    47   24   45       1
@<TRIPOS>SUBSTRUCTURE
     1 GTP700      1 GROUP             4 A     GTP     0 **** GTP A 700
