@<TRIPOS>MOLECULE
3hgr_FMN_3_ligand
   50    52     1     0     0
SMALL
NO_CHARGES


@<TRIPOS>ATOM
     1 N1           3.0380    -3.1620     0.2380 N.2          1 FMN401   0.0000
     2 C2           1.7760    -2.6520     0.3370 C.2          1 FMN401   0.0000
     3 O2           1.2110    -2.0660    -0.5610 O.2          1 FMN401   0.0000
     4 N3           1.0750    -2.8100     1.5730 N.pl3        1 FMN401   0.0000
     5 C4           1.5550    -3.4390     2.6730 C.2          1 FMN401   0.0000
     6 O4           0.8690    -3.5150     3.6970 O.2          1 FMN401   0.0000
     7 C4A          2.9140    -3.9990     2.5620 C.2          1 FMN401   0.0000
     8 N5           3.4900    -4.6350     3.5870 N.2          1 FMN401   0.0000
     9 C5A          4.7710    -5.1150     3.4490 C.ar         1 FMN401   0.0000
    10 C6           5.4340    -5.7860     4.5740 C.ar         1 FMN401   0.0000
    11 C7           6.7150    -6.2630     4.5260 C.ar         1 FMN401   0.0000
    12 C7M          7.3990    -6.9440     5.7220 C.3          1 FMN401   0.0000
    13 C8           7.4890    -6.1200     3.2730 C.ar         1 FMN401   0.0000
    14 C8M          8.9070    -6.6260     3.1550 C.3          1 FMN401   0.0000
    15 C9           6.8710    -5.4850     2.1940 C.ar         1 FMN401   0.0000
    16 C9A          5.5490    -4.9740     2.2310 C.ar         1 FMN401   0.0000
    17 N10          4.8860    -4.2930     1.1580 N.pl3        1 FMN401   0.0000
    18 C10          3.6010    -3.7990     1.2650 C.2          1 FMN401   0.0000
    19 C1'          5.5910    -4.0530    -0.1180 C.3          1 FMN401   0.0000
    20 C2'          6.3990    -2.7550     0.1350 C.3          1 FMN401   0.0000
    21 O2'          5.5920    -1.6080     0.3430 O.3          1 FMN401   0.0000
    22 C3'          7.4110    -2.3000    -0.9240 C.3          1 FMN401   0.0000
    23 O3'          6.7240    -2.0950    -2.1960 O.3          1 FMN401   0.0000
    24 C4'          8.5050    -3.3170    -1.0740 C.3          1 FMN401   0.0000
    25 O4'          9.1920    -3.4370     0.1960 O.3          1 FMN401   0.0000
    26 C5'          9.5020    -2.9170    -2.1540 C.3          1 FMN401   0.0000
    27 O5'         10.5620    -2.0810    -1.6350 O.3          1 FMN401   0.0000
    28 P           11.9440    -2.3860    -0.9190 P.3          1 FMN401   0.0000
    29 O1P         12.8340    -3.0660    -1.9270 O.co2        1 FMN401   0.0000
    30 O2P         11.7280    -3.2050     0.3280 O.co2        1 FMN401  -1.0000
    31 O3P         12.4570    -0.9410    -0.6080 O.co2        1 FMN401  -1.0000
    32 H1           0.1541    -2.4244     1.6305 H            1 FMN401   0.0000
    33 H2           4.9197    -5.9009     5.4239 H            1 FMN401   0.0000
    34 H7M1         8.3277    -7.2127     5.4662 H            1 FMN401   0.0000
    35 H7M2         7.4364    -6.3068     6.4918 H            1 FMN401   0.0000
    36 H7M3         6.8780    -7.7556     5.9862 H            1 FMN401   0.0000
    37 H8M1         9.2534    -6.4358     2.2364 H            1 FMN401   0.0000
    38 H8M2         9.4827    -6.1651     3.8304 H            1 FMN401   0.0000
    39 H8M3         8.9238    -7.6121     3.3201 H            1 FMN401   0.0000
    40 H9           7.3910    -5.3848     1.3458 H            1 FMN401   0.0000
    41 H1'1         4.9389    -3.9253    -0.8653 H            1 FMN401   0.0000
    42 H1'2         6.2016    -4.8147    -0.3349 H            1 FMN401   0.0000
    43 H2'          6.9144    -2.8991     0.9798 H            1 FMN401   0.0000
    44 H13          5.3928    -1.5130     1.3183 H            1 FMN401   0.0000
    45 H3'          7.8148    -1.4329    -0.6324 H            1 FMN401   0.0000
    46 H15          6.2989    -2.9520    -2.4872 H            1 FMN401   0.0000
    47 H4'          8.1008    -4.2001    -1.3124 H            1 FMN401   0.0000
    48 H17         10.1558    -3.1980     0.0775 H            1 FMN401   0.0000
    49 H5'1         9.0171    -2.4150    -2.8702 H            1 FMN401   0.0000
    50 H5'2         9.9058    -3.7453    -2.5425 H            1 FMN401   0.0000
@<TRIPOS>BOND
     1    1    2       1
     2    1   18       2
     3    2    3       2
     4    2    4       1
     5    4    5       1
     6    5    6       2
     7    5    7       1
     8    7    8       2
     9    7   18       1
    10    8    9       1
    11    9   10      ar
    12    9   16      ar
    13   10   11      ar
    14   11   12       1
    15   11   13      ar
    16   13   14       1
    17   13   15      ar
    18   15   16      ar
    19   16   17       1
    20   17   18       1
    21   17   19       1
    22   19   20       1
    23   20   21       1
    24   20   22       1
    25   22   23       1
    26   22   24       1
    27   24   25       1
    28   24   26       1
    29   26   27       1
    30   27   28       1
    31   28   29      ar
    32   28   30      ar
    33   28   31      ar
    34    4   32       1
    35   10   33       1
    36   12   34       1
    37   12   35       1
    38   12   36       1
    39   14   37       1
    40   14   38       1
    41   14   39       1
    42   15   40       1
    43   19   41       1
    44   19   42       1
    45   20   43       1
    46   21   44       1
    47   22   45       1
    48   23   46       1
    49   24   47       1
    50   25   48       1
    51   26   49       1
    52   26   50       1
@<TRIPOS>SUBSTRUCTURE
     1 FMN401      1 GROUP             4 A     FMN     0 **** FMN A 401
