@<TRIPOS>MOLECULE
3d6b_54D_1_ligand
   15    15     1     0     0
SMALL
NO_CHARGES


@<TRIPOS>ATOM
     1 O8         -14.1100    75.1550     1.7170 O.2          1 54D501   0.0000
     2 C6         -14.6230    74.0530     1.8880 C.2          1 54D501   0.0000
     3 O7         -14.9880    73.2290     0.7380 O.3          1 54D501   0.0000
     4 C9         -16.3660    73.0510     0.3910 C.3          1 54D501   0.0000
     5 C2         -14.8520    73.5780     3.2840 C.2          1 54D501   0.0000
     6 S3         -14.8780    71.8650     3.5500 S.3          1 54D501   0.0000
     7 C4         -15.1390    72.0000     5.2620 C.2          1 54D501   0.0000
     8 C5         -15.2080    73.3600     5.5720 C.2          1 54D501   0.0000
     9 C1         -15.0450    74.2410     4.4960 C.2          1 54D501   0.0000
    10 H1         -16.4335    72.4630    -0.4150 H            1 54D501   0.0000
    11 H2         -16.8500    72.6254     1.1556 H            1 54D501   0.0000
    12 H3         -16.7767    73.9404     0.1901 H            1 54D501   0.0000
    13 H4         -15.2243    71.2417     5.9082 H            1 54D501   0.0000
    14 H5         -15.3642    73.6846     6.5049 H            1 54D501   0.0000
    15 H6         -15.0648    75.2367     4.5865 H            1 54D501   0.0000
@<TRIPOS>BOND
     1    1    2       2
     2    2    3       1
     3    2    5       1
     4    3    4       1
     5    5    6       1
     6    5    9       2
     7    6    7       1
     8    7    8       2
     9    8    9       1
    10    4   10       1
    11    4   11       1
    12    4   12       1
    13    7   13       1
    14    8   14       1
    15    9   15       1
@<TRIPOS>SUBSTRUCTURE
     1 54D501      1 GROUP             4 C     54D     0 **** 54D C 501
