@<TRIPOS>MOLECULE
3vi2_HMZ_1_ligand
   27    27     1     0     0
SMALL
NO_CHARGES


@<TRIPOS>ATOM
     1 CAA         18.4180    33.8580     9.8760 C.3          1 HMZ500   0.0000
     2 OAB         25.2220    37.0350    12.7100 O.co2        1 HMZ500   0.0000
     3 OAC         22.1880    33.2690    16.0680 O.2          1 HMZ500   0.0000
     4 OAD         25.7190    36.2930    14.7270 O.co2        1 HMZ500  -1.0000
     5 OAE         20.2830    36.4620    14.6090 O.3          1 HMZ500   0.0000
     6 CAF         19.8350    32.9020    12.4830 C.ar         1 HMZ500   0.0000
     7 CAG         20.8150    33.0270    13.4410 C.ar         1 HMZ500   0.0000
     8 CAH         19.1740    35.1130    12.9520 C.ar         1 HMZ500   0.0000
     9 CAI         23.5560    35.7770    13.8110 C.3          1 HMZ500   0.0000
    10 CAJ         23.2440    35.2520    15.2280 C.3          1 HMZ500   0.0000
    11 OAK         17.9990    33.7900    11.2010 O.3          1 HMZ500   0.0000
    12 CAL         24.9480    36.4250    13.7530 C.2          1 HMZ500   0.0000
    13 CAM         22.1260    34.1900    15.2470 C.2          1 HMZ500   0.0000
    14 CAN         19.0090    33.9570    12.2140 C.ar         1 HMZ500   0.0000
    15 CAO         20.1450    35.2710    13.9110 C.ar         1 HMZ500   0.0000
    16 CAP         20.9830    34.2000    14.1800 C.ar         1 HMZ500   0.0000
    17 HAA1        17.6325    33.7283     9.2709 H            1 HMZ500   0.0000
    18 HAA2        18.8287    34.7530     9.7018 H            1 HMZ500   0.0000
    19 HAA3        19.0940    33.1417     9.7030 H            1 HMZ500   0.0000
    20 HAE         19.6685    37.2275    14.4181 H            1 HMZ500   0.0000
    21 HAF         19.7276    32.0415    11.9850 H            1 HMZ500   0.0000
    22 HAG         21.4257    32.2541    13.6133 H            1 HMZ500   0.0000
    23 HAH         18.5524    35.8769    12.7787 H            1 HMZ500   0.0000
    24 HAI1        22.8686    36.4572    13.5564 H            1 HMZ500   0.0000
    25 HAI2        23.5244    35.0135    13.1659 H            1 HMZ500   0.0000
    26 HAJ1        22.9601    36.0232    15.7978 H            1 HMZ500   0.0000
    27 HAJ2        24.0754    34.8457    15.6071 H            1 HMZ500   0.0000
@<TRIPOS>BOND
     1    1   11       1
     2    2   12      ar
     3    3   13       2
     4    4   12      ar
     5    5   15       1
     6    6    7      ar
     7    6   14      ar
     8    7   16      ar
     9    8   14      ar
    10    8   15      ar
    11    9   10       1
    12    9   12       1
    13   10   13       1
    14   11   14       1
    15   13   16       1
    16   15   16      ar
    17    1   17       1
    18    1   18       1
    19    1   19       1
    20   10   27       1
    21    5   20       1
    22    6   21       1
    23    7   22       1
    24    8   23       1
    25    9   24       1
    26    9   25       1
    27   10   26       1
@<TRIPOS>SUBSTRUCTURE
     1 HMZ500      1 GROUP             4 A     HMZ     0 **** HMZ A 500
