@<TRIPOS>MOLECULE
3c7d_NAD_1_ligand
   70    74     1     0     0
SMALL
NO_CHARGES


@<TRIPOS>ATOM
     1 PA          38.9880    16.3010   -21.1490 P.3          1 NAD405   0.0000
     2 O1A         39.0230    15.5370   -22.4170 O.co2        1 NAD405   0.0000
     3 O2A         39.1370    17.7510   -21.3910 O.co2        1 NAD405  -1.0000
     4 O5B         40.1600    15.7890   -20.1720 O.3          1 NAD405   0.0000
     5 C5B         41.4100    15.3580   -20.6560 C.3          1 NAD405   0.0000
     6 C4B         42.2390    14.9470   -19.4480 C.3          1 NAD405   0.0000
     7 O4B         42.2230    13.5430   -19.2670 O.3          1 NAD405   0.0000
     8 C3B         43.7010    15.3270   -19.5740 C.3          1 NAD405   0.0000
     9 O3B         43.9250    16.6320   -19.1030 O.3          1 NAD405   0.0000
    10 C2B         44.3850    14.2920   -18.7100 C.3          1 NAD405   0.0000
    11 O2B         44.4600    14.7390   -17.3750 O.3          1 NAD405   0.0000
    12 C1B         43.4710    13.0800   -18.7840 C.3          1 NAD405   0.0000
    13 N9A         44.0470    12.0860   -19.7140 N.pl3        1 NAD405   0.0000
    14 C8A         43.9080    12.0760   -21.0820 C.2          1 NAD405   0.0000
    15 N7A         44.5820    11.0170   -21.5810 N.2          1 NAD405   0.0000
    16 C5A         45.1510    10.3460   -20.5560 C.ar         1 NAD405   0.0000
    17 C6A         45.9440     9.2030   -20.5140 C.ar         1 NAD405   0.0000
    18 N6A         46.5560     8.8180   -21.6320 N.pl3        1 NAD405   0.0000
    19 N1A         46.4000     8.7290   -19.2930 N.ar         1 NAD405   0.0000
    20 C2A         46.0750     9.3910   -18.1230 C.ar         1 NAD405   0.0000
    21 N3A         45.2850    10.5290   -18.1790 N.ar         1 NAD405   0.0000
    22 C4A         44.8280    11.0040   -19.3730 C.ar         1 NAD405   0.0000
    23 O3          37.6160    15.9570   -20.3600 O.3          1 NAD405   0.0000
    24 PN          36.6620    17.0770   -19.6870 P.3          1 NAD405   0.0000
    25 O1N         36.2800    18.0820   -20.7020 O.co2        1 NAD405   0.0000
    26 O2N         37.2680    17.5400   -18.4160 O.co2        1 NAD405  -1.0000
    27 O5D         35.3280    16.2360   -19.3610 O.3          1 NAD405   0.0000
    28 C5D         35.3270    15.1210   -18.4970 C.3          1 NAD405   0.0000
    29 C4D         34.0230    14.3470   -18.6730 C.3          1 NAD405   0.0000
    30 O4D         32.9170    15.2320   -18.6480 O.3          1 NAD405   0.0000
    31 C3D         33.9750    13.6000   -19.9980 C.3          1 NAD405   0.0000
    32 O3D         33.6480    12.2540   -19.7440 O.3          1 NAD405   0.0000
    33 C2D         32.8770    14.2660   -20.8040 C.3          1 NAD405   0.0000
    34 O2D         32.0950    13.3200   -21.4980 O.3          1 NAD405   0.0000
    35 C1D         32.0540    14.9960   -19.7480 C.3          1 NAD405   0.0000
    36 N1N         31.4670    16.2650   -20.2350 N.ar         1 NAD405   1.0000
    37 C2N         32.2520    17.2420   -20.7950 C.ar         1 NAD405   0.0000
    38 C3N         31.6890    18.4390   -21.2440 C.ar         1 NAD405   0.0000
    39 C7N         32.5600    19.6590   -21.3410 C.2          1 NAD405   0.0000
    40 O7N         31.9650    20.8800   -21.7120 O.2          1 NAD405   0.0000
    41 N7N         33.8640    19.5750   -21.0700 N.am         1 NAD405   0.0000
    42 C4N         30.3100    18.6280   -21.1210 C.ar         1 NAD405   0.0000
    43 C5N         29.5170    17.6400   -20.5460 C.ar         1 NAD405   0.0000
    44 C6N         30.1140    16.4580   -20.1060 C.ar         1 NAD405   0.0000
    45 H5B1        41.8634    16.1024   -21.1462 H            1 NAD405   0.0000
    46 H5B2        41.2897    14.5786   -21.2709 H            1 NAD405   0.0000
    47 H4B         41.8602    15.3831   -18.6317 H            1 NAD405   0.0000
    48 H3B         44.0025    15.2426   -20.5237 H            1 NAD405   0.0000
    49 H5          44.8945    16.8583   -19.1966 H            1 NAD405   0.0000
    50 H2B         45.2943    14.0753   -19.0653 H            1 NAD405   0.0000
    51 H7          45.3120    15.2450   -17.2403 H            1 NAD405   0.0000
    52 H1B         43.3601    12.6770   -17.8755 H            1 NAD405   0.0000
    53 H8A         43.3924    12.7434   -21.6194 H            1 NAD405   0.0000
    54 H6A1        47.1319     8.0005   -21.6307 H            1 NAD405   0.0000
    55 H6A2        46.4397     9.3463   -22.4730 H            1 NAD405   0.0000
    56 H2A         46.4074     9.0514   -17.2431 H            1 NAD405   0.0000
    57 H5D1        35.4054    15.4323   -17.5499 H            1 NAD405   0.0000
    58 H5D2        36.1005    14.5268   -18.7177 H            1 NAD405   0.0000
    59 H4D         33.9310    13.6896   -17.9251 H            1 NAD405   0.0000
    60 H3D         34.8523    13.6668   -20.4733 H            1 NAD405   0.0000
    61 H17         32.7985    12.0222   -20.2179 H            1 NAD405   0.0000
    62 H2D         33.2722    14.9227   -21.4463 H            1 NAD405   0.0000
    63 H19         32.1497    13.4986   -22.4804 H            1 NAD405   0.0000
    64 H1D         31.3126    14.3951   -19.4492 H            1 NAD405   0.0000
    65 H2N         33.2373    17.0953   -20.8825 H            1 NAD405   0.0000
    66 H7N1        34.4417    20.3886   -21.1353 H            1 NAD405   0.0000
    67 H7N2        34.2635    18.6984   -20.8016 H            1 NAD405   0.0000
    68 H4N         29.8919    19.4758   -21.4472 H            1 NAD405   0.0000
    69 H5N         28.5309    17.7753   -20.4492 H            1 NAD405   0.0000
    70 H6N         29.5499    15.7435   -19.6921 H            1 NAD405   0.0000
@<TRIPOS>BOND
     1    1    2      ar
     2    1    3      ar
     3    1    4       1
     4    1   23       1
     5    4    5       1
     6    5    6       1
     7    6    7       1
     8    6    8       1
     9    7   12       1
    10    8    9       1
    11    8   10       1
    12   10   11       1
    13   10   12       1
    14   12   13       1
    15   13   14       1
    16   13   22       1
    17   14   15       2
    18   15   16       1
    19   16   17      ar
    20   16   22      ar
    21   17   18       1
    22   17   19      ar
    23   19   20      ar
    24   20   21      ar
    25   21   22      ar
    26   23   24       1
    27   24   25      ar
    28   24   26      ar
    29   24   27       1
    30   27   28       1
    31   28   29       1
    32   29   30       1
    33   29   31       1
    34   30   35       1
    35   31   32       1
    36   31   33       1
    37   33   34       1
    38   33   35       1
    39   35   36       1
    40   36   37      ar
    41   36   44      ar
    42   37   38      ar
    43   38   39       1
    44   38   42      ar
    45   39   40       2
    46   39   41      am
    47   42   43      ar
    48   43   44      ar
    49   44   70       1
    50    5   45       1
    51    5   46       1
    52    6   47       1
    53    8   48       1
    54    9   49       1
    55   10   50       1
    56   11   51       1
    57   12   52       1
    58   14   53       1
    59   18   54       1
    60   18   55       1
    61   20   56       1
    62   43   69       1
    63   28   57       1
    64   28   58       1
    65   29   59       1
    66   31   60       1
    67   32   61       1
    68   33   62       1
    69   34   63       1
    70   35   64       1
    71   37   65       1
    72   41   66       1
    73   41   67       1
    74   42   68       1
@<TRIPOS>SUBSTRUCTURE
     1 NAD405      1 GROUP             4 B     NAD     0 **** NAD B 405
