@<TRIPOS>MOLECULE
4j97_ACP_3_ligand
   45    47     1     0     0
SMALL
NO_CHARGES


@<TRIPOS>ATOM
     1 PG          -6.3570    18.2780    77.1020 P.3          1 ACP801   0.0000
     2 O1G         -6.9370    18.5310    75.7430 O.co2        1 ACP801   0.0000
     3 O2G         -7.5050    18.3170    78.1710 O.co2        1 ACP801  -1.0000
     4 O3G         -5.3000    19.3850    77.4270 O.co2        1 ACP801  -1.0000
     5 PB          -4.7640    16.2410    78.7460 P.3          1 ACP801   0.0000
     6 O1B         -3.2740    16.1750    78.5720 O.co2        1 ACP801   0.0000
     7 O2B         -5.2880    14.8520    79.2440 O.co2        1 ACP801  -1.0000
     8 C3B         -5.5470    16.6210    77.1160 C.3          1 ACP801   0.0000
     9 PA          -6.2070    17.0860    80.9500 P.3          1 ACP801   0.0000
    10 O1A         -7.1910    16.0510    80.4660 O.co2        1 ACP801   0.0000
    11 O2A         -6.9490    18.3740    81.2510 O.co2        1 ACP801  -1.0000
    12 O3A         -5.1160    17.3570    79.8260 O.3          1 ACP801   0.0000
    13 O5'         -5.5000    16.5630    82.3010 O.3          1 ACP801   0.0000
    14 C5'         -5.1820    15.2010    82.4520 C.3          1 ACP801   0.0000
    15 C4'         -5.6970    14.7140    83.7450 C.3          1 ACP801   0.0000
    16 O4'         -7.1380    15.0100    83.8500 O.3          1 ACP801   0.0000
    17 C3'         -5.5270    13.2740    83.8610 C.3          1 ACP801   0.0000
    18 O3'         -4.4340    12.9600    84.7240 O.3          1 ACP801   0.0000
    19 C2'         -6.7340    12.7280    84.3910 C.3          1 ACP801   0.0000
    20 O2'         -6.4710    12.1340    85.6790 O.3          1 ACP801   0.0000
    21 C1'         -7.6980    13.8060    84.5160 C.3          1 ACP801   0.0000
    22 N9          -8.9370    13.4550    83.9650 N.pl3        1 ACP801   0.0000
    23 C8          -9.4250    13.7940    82.7640 C.2          1 ACP801   0.0000
    24 N7         -10.6420    13.2730    82.6050 N.2          1 ACP801   0.0000
    25 C5         -10.9800    12.5830    83.6920 C.ar         1 ACP801   0.0000
    26 C6         -12.1040    11.8400    84.0900 C.ar         1 ACP801   0.0000
    27 N6         -13.2520    11.6980    83.2120 N.pl3        1 ACP801   0.0000
    28 N1         -12.1280    11.2490    85.2930 N.ar         1 ACP801   0.0000
    29 C2         -11.0840    11.3530    86.1480 C.ar         1 ACP801   0.0000
    30 N3          -9.9760    12.0650    85.7990 N.ar         1 ACP801   0.0000
    31 C4          -9.8970    12.6840    84.5910 C.ar         1 ACP801   0.0000
    32 H3B1        -4.8416    16.6013    76.4074 H            1 ACP801   0.0000
    33 H3B2        -6.2364    15.9238    76.9195 H            1 ACP801   0.0000
    34 H5'1        -4.1890    15.0859    82.4245 H            1 ACP801   0.0000
    35 H5'2        -5.5990    14.6774    81.7090 H            1 ACP801   0.0000
    36 H4'         -5.2087    15.1680    84.4902 H            1 ACP801   0.0000
    37 H3'         -5.3568    12.8859    82.9552 H            1 ACP801   0.0000
    38 H7          -4.7647    12.8770    85.6641 H            1 ACP801   0.0000
    39 H2'         -7.0890    12.0317    83.7672 H            1 ACP801   0.0000
    40 H9          -6.2214    11.1732    85.5583 H            1 ACP801   0.0000
    41 H1'         -7.8262    14.0087    85.4868 H            1 ACP801   0.0000
    42 H11         -8.9474    14.3545    82.0874 H            1 ACP801   0.0000
    43 H12        -14.0453    11.1662    83.5083 H            1 ACP801   0.0000
    44 H13        -13.2492    12.1320    82.3111 H            1 ACP801   0.0000
    45 H14        -11.1261    10.9047    87.0409 H            1 ACP801   0.0000
@<TRIPOS>BOND
     1    1    2      ar
     2    1    3      ar
     3    1    4      ar
     4    1    8       1
     5    5    6      ar
     6    5    7      ar
     7    5    8       1
     8    5   12       1
     9    9   10      ar
    10    9   11      ar
    11    9   12       1
    12    9   13       1
    13   13   14       1
    14   14   15       1
    15   15   16       1
    16   15   17       1
    17   16   21       1
    18   17   18       1
    19   17   19       1
    20   19   20       1
    21   19   21       1
    22   21   22       1
    23   22   23       1
    24   22   31       1
    25   23   24       2
    26   24   25       1
    27   25   26      ar
    28   25   31      ar
    29   26   27       1
    30   26   28      ar
    31   28   29      ar
    32   29   30      ar
    33   30   31      ar
    34   29   45       1
    35   27   44       1
    36   27   43       1
    37    8   32       1
    38    8   33       1
    39   23   42       1
    40   14   34       1
    41   14   35       1
    42   15   36       1
    43   17   37       1
    44   18   38       1
    45   19   39       1
    46   20   40       1
    47   21   41       1
@<TRIPOS>SUBSTRUCTURE
     1 ACP801      1 GROUP             4 C     ACP     0 **** ACP C 801
