@<TRIPOS>MOLECULE
3wxy_COA_1_ligand
   80    82     1     0     0
SMALL
NO_CHARGES


@<TRIPOS>ATOM
     1 N1A          0.9450   -17.8950   -18.3270 N.ar         1 COA401   0.0000
     2 C2A          1.3080   -18.5460   -19.4460 C.ar         1 COA401   0.0000
     3 N3A          1.8880   -19.7570   -19.4380 N.ar         1 COA401   0.0000
     4 C4A          2.1440   -20.3950   -18.2710 C.ar         1 COA401   0.0000
     5 C5A          1.7800   -19.7520   -17.0040 C.ar         1 COA401   0.0000
     6 C6A          1.1440   -18.4160   -17.0940 C.ar         1 COA401   0.0000
     7 N6A          0.7730   -17.7360   -15.9790 N.pl3        1 COA401   0.0000
     8 N7A          2.1480   -20.5970   -16.0220 N.2          1 COA401   0.0000
     9 C8A          2.6990   -21.6950   -16.6110 C.2          1 COA401   0.0000
    10 N9A          2.6920   -21.5630   -17.9500 N.pl3        1 COA401   0.0000
    11 C1B          3.2070   -22.5210   -18.9480 C.3          1 COA401   0.0000
    12 C2B          4.7150   -22.6060   -18.8170 C.3          1 COA401   0.0000
    13 O2B          5.3490   -21.5200   -19.4980 O.3          1 COA401   0.0000
    14 C3B          5.0080   -23.9510   -19.4440 C.3          1 COA401   0.0000
    15 O3B          5.1290   -23.8010   -20.8480 O.3          1 COA401   0.0000
    16 P3B          6.1960   -24.6760   -21.6840 P.3          1 COA401   0.0000
    17 O7A          7.5090   -24.4400   -20.9710 O.co2        1 COA401   0.0000
    18 O8A          5.6760   -26.0890   -21.5590 O.co2        1 COA401  -1.0000
    19 O9A          6.0560   -24.0750   -23.0590 O.co2        1 COA401  -1.0000
    20 C4B          3.7430   -24.7600   -19.2080 C.3          1 COA401   0.0000
    21 O4B          2.7430   -23.8530   -18.7400 O.3          1 COA401   0.0000
    22 C5B          3.9840   -25.8260   -18.1600 C.3          1 COA401   0.0000
    23 O5B          4.3410   -25.1550   -16.9560 O.3          1 COA401   0.0000
    24 P1A          4.9060   -25.9950   -15.7140 P.3          1 COA401   0.0000
    25 O1A          5.8690   -25.1260   -14.9450 O.co2        1 COA401   0.0000
    26 O2A          5.2930   -27.3780   -16.1870 O.co2        1 COA401  -1.0000
    27 O3A          3.5700   -26.0790   -14.8200 O.3          1 COA401   0.0000
    28 P2A          2.6230   -27.3800   -14.7580 P.3          1 COA401   0.0000
    29 O4A          2.4490   -27.9830   -16.1360 O.co2        1 COA401   0.0000
    30 O5A          3.0160   -28.2300   -13.5680 O.co2        1 COA401  -1.0000
    31 O6A          1.2590   -26.6060   -14.4000 O.3          1 COA401   0.0000
    32 CBP         -0.1060   -24.7070   -14.3770 C.3          1 COA401   0.0000
    33 CCP          0.8010   -25.5550   -15.2460 C.3          1 COA401   0.0000
    34 CDP         -0.6970   -23.5660   -15.1910 C.3          1 COA401   0.0000
    35 CEP         -1.2230   -25.5840   -13.8240 C.3          1 COA401   0.0000
    36 CAP          0.8080   -24.1920   -13.2620 C.3          1 COA401   0.0000
    37 OAP          1.9230   -23.4750   -13.8370 O.3          1 COA401   0.0000
    38 C9P          0.1060   -23.2920   -12.2850 C.2          1 COA401   0.0000
    39 O9P         -0.6860   -23.7440   -11.4720 O.2          1 COA401   0.0000
    40 N8P          0.4460   -22.0090   -12.3470 N.am         1 COA401   0.0000
    41 C7P         -0.1360   -21.0010   -11.4810 C.3          1 COA401   0.0000
    42 C6P         -1.3580   -20.3400   -12.1140 C.3          1 COA401   0.0000
    43 C5P         -1.6650   -19.0560   -11.3800 C.2          1 COA401   0.0000
    44 O5P         -0.8520   -18.1440   -11.3320 O.2          1 COA401   0.0000
    45 N4P         -2.8540   -18.9840   -10.8000 N.am         1 COA401   0.0000
    46 C3P         -3.3930   -17.7390   -10.3050 C.3          1 COA401   0.0000
    47 C2P         -4.4810   -17.2080   -11.2290 C.3          1 COA401   0.0000
    48 S1P         -4.9970   -15.5970   -10.5900 S.3          1 COA401   0.0000
    49 H2A          1.1376   -18.1065   -20.3279 H            1 COA401   0.0000
    50 H6A1         0.9272   -18.1354   -15.0753 H            1 COA401   0.0000
    51 H6A2         0.3455   -16.8358   -16.0615 H            1 COA401   0.0000
    52 H8A          3.0580   -22.4873   -16.1177 H            1 COA401   0.0000
    53 H1B          2.9628   -22.2163   -19.8686 H            1 COA401   0.0000
    54 H2B          4.9783   -22.6098   -17.8523 H            1 COA401   0.0000
    55 H7           6.3410   -21.5973   -19.3978 H            1 COA401   0.0000
    56 H3B          5.8133   -24.3862   -19.0415 H            1 COA401   0.0000
    57 H4B          3.4451   -25.1840   -20.0632 H            1 COA401   0.0000
    58 H5B1         4.7266   -26.4301   -18.4494 H            1 COA401   0.0000
    59 H5B2         3.1525   -26.3635   -18.0197 H            1 COA401   0.0000
    60 HCP1         0.2935   -25.9271   -16.0231 H            1 COA401   0.0000
    61 HCP2         1.5723   -25.0133   -15.5802 H            1 COA401   0.0000
    62 HDP1        -1.2929   -23.0141   -14.6076 H            1 COA401   0.0000
    63 HDP2         0.0414   -22.9944   -15.5488 H            1 COA401   0.0000
    64 HDP3        -1.2280   -23.9393   -15.9517 H            1 COA401   0.0000
    65 HEP1        -1.8266   -25.0318   -13.2489 H            1 COA401   0.0000
    66 HEP2        -1.7478   -25.9725   -14.5814 H            1 COA401   0.0000
    67 HEP3        -0.8275   -26.3232   -13.2788 H            1 COA401   0.0000
    68 HAP          1.1664   -24.9799   -12.7611 H            1 COA401   0.0000
    69 H21          2.4414   -24.0877   -14.4335 H            1 COA401   0.0000
    70 H8P          1.1313   -21.7266   -13.0183 H            1 COA401   0.0000
    71 H7P1         0.5513   -20.2987   -11.2956 H            1 COA401   0.0000
    72 H7P2        -0.4112   -21.4330   -10.6221 H            1 COA401   0.0000
    73 H6P1        -2.1423   -20.9571   -12.0507 H            1 COA401   0.0000
    74 H6P2        -1.1690   -20.1387   -13.0751 H            1 COA401   0.0000
    75 H4P         -3.3958   -19.8188   -10.7018 H            1 COA401   0.0000
    76 H3P1        -2.6568   -17.0648   -10.2457 H            1 COA401   0.0000
    77 H3P2        -3.7812   -17.8895    -9.3958 H            1 COA401   0.0000
    78 H2P1        -5.2585   -17.8369   -11.2379 H            1 COA401   0.0000
    79 H2P2        -4.1223   -17.1083   -12.1571 H            1 COA401   0.0000
    80 H1P         -5.7136   -15.2197   -11.1767 H            1 COA401   0.0000
@<TRIPOS>BOND
     1    1    2      ar
     2    1    6      ar
     3    2    3      ar
     4    3    4      ar
     5    4    5      ar
     6    4   10       1
     7    5    6      ar
     8    5    8       1
     9    6    7       1
    10    8    9       2
    11    9   10       1
    12   10   11       1
    13   11   12       1
    14   11   21       1
    15   12   13       1
    16   12   14       1
    17   14   15       1
    18   14   20       1
    19   15   16       1
    20   16   17      ar
    21   16   18      ar
    22   16   19      ar
    23   20   21       1
    24   20   22       1
    25   22   23       1
    26   23   24       1
    27   24   25      ar
    28   24   26      ar
    29   24   27       1
    30   27   28       1
    31   28   29      ar
    32   28   30      ar
    33   28   31       1
    34   31   33       1
    35   32   33       1
    36   32   34       1
    37   32   35       1
    38   32   36       1
    39   36   37       1
    40   36   38       1
    41   38   39       2
    42   38   40      am
    43   40   41       1
    44   41   42       1
    45   42   43       1
    46   43   44       2
    47   43   45      am
    48   45   46       1
    49   46   47       1
    50   47   48       1
    51    2   49       1
    52    7   50       1
    53    7   51       1
    54    9   52       1
    55   11   53       1
    56   12   54       1
    57   13   55       1
    58   14   56       1
    59   48   80       1
    60   47   79       1
    61   20   57       1
    62   22   58       1
    63   22   59       1
    64   47   78       1
    65   46   77       1
    66   33   60       1
    67   33   61       1
    68   34   62       1
    69   34   63       1
    70   34   64       1
    71   35   65       1
    72   35   66       1
    73   35   67       1
    74   36   68       1
    75   37   69       1
    76   40   70       1
    77   41   71       1
    78   41   72       1
    79   42   73       1
    80   42   74       1
    81   45   75       1
    82   46   76       1
@<TRIPOS>SUBSTRUCTURE
     1 COA401      1 GROUP             4 A     COA     0 **** COA A 401
