@<TRIPOS>MOLECULE
1yqy_915_1_ligand
   41    42     1     0     0
SMALL
NO_CHARGES


@<TRIPOS>ATOM
     1 C1           9.2270    20.0170    27.7680 C.ar         1 915782   0.0000
     2 C2           8.2930    19.4750    28.7070 C.ar         1 915782   0.0000
     3 C3           8.0500    20.1670    29.9210 C.ar         1 915782   0.0000
     4 C4           8.7620    21.3710    30.1500 C.ar         1 915782   0.0000
     5 C5           9.7370    21.8950    29.2310 C.ar         1 915782   0.0000
     6 C6           9.9470    21.2150    28.0390 C.ar         1 915782   0.0000
     7 F10          8.5230    22.0660    31.2740 F            1 915782   0.0000
     8 C11          7.0320    19.6580    30.9070 C.3          1 915782   0.0000
     9 S15          9.4700    19.1960    26.2210 S.o2         1 915782   0.0000
    10 N16         10.4390    17.7900    26.5140 N.3          1 915782   0.0000
    11 C17         11.8990    17.9240    26.5070 C.3          1 915782   0.0000
    12 C18         12.4690    18.4380    27.8460 C.2          1 915782   0.0000
    13 N19         13.3900    19.4380    27.7230 N.am         1 915782   0.0000
    14 O20         13.9690    19.9520    28.8730 O.3          1 915782  -1.0000
    15 O21         12.1600    17.9990    28.9170 O.2          1 915782   0.0000
    16 O22         10.3620    19.9620    25.4200 O.2          1 915782   0.0000
    17 O23          8.1790    18.7420    25.7310 O.2          1 915782   0.0000
    18 C27         12.6710    16.6260    26.2000 C.3          1 915782   0.0000
    19 C29         12.3710    15.9420    24.8220 C.3          1 915782   0.0000
    20 C30         13.1600    14.6640    24.5620 C.3          1 915782   0.0000
    21 O31         14.5420    14.9270    24.7000 O.3          1 915782   0.0000
    22 C32         14.9420    15.4300    25.9930 C.3          1 915782   0.0000
    23 C33         14.2100    16.7480    26.3050 C.3          1 915782   0.0000
    24 H1           7.8170    18.6180    28.5095 H            1 915782   0.0000
    25 H2          10.2496    22.7265    29.4450 H            1 915782   0.0000
    26 H3          10.6034    21.5663    27.3713 H            1 915782   0.0000
    27 H4           6.9979    20.2702    31.6970 H            1 915782   0.0000
    28 H5           6.1326    19.6261    30.4710 H            1 915782   0.0000
    29 H6           7.2894    18.7397    31.2078 H            1 915782   0.0000
    30 H7          10.2022    17.1184    25.8119 H            1 915782   0.0000
    31 H8          12.1375    18.5912    25.8014 H            1 915782   0.0000
    32 H9          13.6417    19.7923    26.8224 H            1 915782   0.0000
    33 H10         12.3968    15.9681    26.9014 H            1 915782   0.0000
    34 H11         12.5872    16.5950    24.0962 H            1 915782   0.0000
    35 H12         11.3967    15.7188    24.7902 H            1 915782   0.0000
    36 H13         12.9734    14.3399    23.6346 H            1 915782   0.0000
    37 H14         12.8866    13.9635    25.2212 H            1 915782   0.0000
    38 H15         15.9286    15.5930    25.9925 H            1 915782   0.0000
    39 H16         14.7163    14.7536    26.6941 H            1 915782   0.0000
    40 H17         14.4443    17.0299    27.2354 H            1 915782   0.0000
    41 H18         14.5191    17.4448    25.6578 H            1 915782   0.0000
@<TRIPOS>BOND
     1    1    2      ar
     2    1    6      ar
     3    1    9       1
     4    2    3      ar
     5    3    4      ar
     6    3    8       1
     7    4    5      ar
     8    4    7       1
     9    5    6      ar
    10    9   10       1
    11    9   16       2
    12    9   17       2
    13   10   11       1
    14   11   12       1
    15   11   18       1
    16   12   13      am
    17   12   15       2
    18   13   14       1
    19   18   19       1
    20   18   23       1
    21   19   20       1
    22   20   21       1
    23   21   22       1
    24   22   23       1
    25    2   24       1
    26    5   25       1
    27    6   26       1
    28    8   27       1
    29    8   28       1
    30    8   29       1
    31   10   30       1
    32   11   31       1
    33   13   32       1
    34   23   41       1
    35   18   33       1
    36   19   34       1
    37   19   35       1
    38   20   36       1
    39   20   37       1
    40   22   38       1
    41   22   39       1
    42   23   40       1
@<TRIPOS>SUBSTRUCTURE
     1 915782      1 GROUP             4 A     915     0 **** 915 A 782
