@<TRIPOS>MOLECULE
4cry_ACO_1_ligand
   85    87     1     0     0
SMALL
NO_CHARGES


@<TRIPOS>ATOM
     1 N1A         27.9400   -17.7670   -19.3240 N.ar         1 ACO1128   0.0000
     2 C2A         28.5360   -16.6610   -19.7740 C.ar         1 ACO1128   0.0000
     3 N3A         29.1230   -15.7920   -18.9330 N.ar         1 ACO1128   0.0000
     4 C4A         29.1520   -16.0550   -17.5730 C.ar         1 ACO1128   0.0000
     5 C5A         28.5420   -17.1980   -17.0660 C.ar         1 ACO1128   0.0000
     6 C6A         27.8410   -18.0500   -18.0120 C.ar         1 ACO1128   0.0000
     7 N6A         27.2840   -19.1870   -17.5730 N.pl3        1 ACO1128   0.0000
     8 N7A         28.7610   -17.1970   -15.7620 N.2          1 ACO1128   0.0000
     9 C8A         29.4470   -16.1180   -15.4870 C.2          1 ACO1128   0.0000
    10 N9A         29.7010   -15.4390   -16.5720 N.pl3        1 ACO1128   0.0000
    11 C1B         30.3600   -14.1770   -16.7220 C.3          1 ACO1128   0.0000
    12 C2B         29.4110   -13.0550   -17.1010 C.3          1 ACO1128   0.0000
    13 O2B         30.0150   -11.9840   -17.7850 O.3          1 ACO1128   0.0000
    14 C3B         29.0020   -12.4760   -15.7580 C.3          1 ACO1128   0.0000
    15 O3B         28.5310   -11.1350   -15.6790 O.3          1 ACO1128   0.0000
    16 P3B         26.9200   -10.7800   -15.9240 P.3          1 ACO1128   0.0000
    17 O7A         26.1140   -11.8380   -15.2710 O.co2        1 ACO1128   0.0000
    18 O8A         26.7440   -11.1830   -17.3510 O.co2        1 ACO1128  -1.0000
    19 O9A         26.9670    -9.3270   -15.4840 O.co2        1 ACO1128  -1.0000
    20 C4B         30.3130   -12.5410   -14.9870 C.3          1 ACO1128   0.0000
    21 O4B         30.9040   -13.7360   -15.4810 O.3          1 ACO1128   0.0000
    22 C5B         30.1400   -12.6660   -13.4760 C.3          1 ACO1128   0.0000
    23 O5B         29.4870   -13.8330   -13.1840 O.3          1 ACO1128   0.0000
    24 P1A         29.1800   -14.2600   -11.6670 P.3          1 ACO1128   0.0000
    25 O1A         27.6410   -14.2000   -11.5190 O.co2        1 ACO1128   0.0000
    26 O2A         29.9660   -13.5370   -10.6470 O.co2        1 ACO1128  -1.0000
    27 O3A         29.5180   -15.7530   -11.7790 O.3          1 ACO1128   0.0000
    28 P2A         29.2490   -16.9860   -10.8180 P.3          1 ACO1128   0.0000
    29 O4A         28.1730   -17.8120   -11.4150 O.co2        1 ACO1128   0.0000
    30 O5A         29.0260   -16.5230    -9.4390 O.co2        1 ACO1128  -1.0000
    31 O6A         30.6310   -17.8430   -10.8860 O.3          1 ACO1128   0.0000
    32 CBP         31.8460   -19.5290   -11.9450 C.3          1 ACO1128   0.0000
    33 CCP         31.2420   -18.1710   -12.1520 C.3          1 ACO1128   0.0000
    34 CDP         32.9290   -19.4510   -10.8690 C.3          1 ACO1128   0.0000
    35 CEP         32.5770   -19.8850   -13.2560 C.3          1 ACO1128   0.0000
    36 CAP         30.8760   -20.6470   -11.5580 C.3          1 ACO1128   0.0000
    37 OAP         30.0210   -21.0590   -12.6500 O.3          1 ACO1128   0.0000
    38 C9P         31.4350   -21.9020   -11.0500 C.2          1 ACO1128   0.0000
    39 O9P         31.8000   -22.1940    -9.8870 O.2          1 ACO1128   0.0000
    40 N8P         31.6140   -22.8660   -12.0060 N.am         1 ACO1128   0.0000
    41 C7P         32.3570   -24.0870   -11.6960 C.3          1 ACO1128   0.0000
    42 C6P         33.8850   -23.8600   -11.8410 C.3          1 ACO1128   0.0000
    43 C5P         34.5930   -25.1420   -11.6460 C.2          1 ACO1128   0.0000
    44 O5P         34.4360   -26.1980   -12.3030 O.2          1 ACO1128   0.0000
    45 N4P         35.3750   -25.2010   -10.5830 N.am         1 ACO1128   0.0000
    46 C3P         36.0370   -26.4430   -10.2010 C.3          1 ACO1128   0.0000
    47 C2P         37.3750   -26.0680    -9.6670 C.3          1 ACO1128   0.0000
    48 S1P         38.1370   -27.5410    -9.0100 S.3          1 ACO1128   0.0000
    49 C           37.5080   -27.6560    -7.4770 C.2          1 ACO1128   0.0000
    50 O           36.7220   -26.7040    -7.1570 O.2          1 ACO1128   0.0000
    51 CH3         37.9240   -28.8330    -6.6560 C.3          1 ACO1128   0.0000
    52 H2A         28.5461   -16.4750   -20.7565 H            1 ACO1128   0.0000
    53 H6A1        27.2252   -19.3685   -16.5914 H            1 ACO1128   0.0000
    54 H6A2        26.9272   -19.8540   -18.2270 H            1 ACO1128   0.0000
    55 H8A         29.7378   -15.8494   -14.5687 H            1 ACO1128   0.0000
    56 H1B         31.0872   -14.2522   -17.4043 H            1 ACO1128   0.0000
    57 H2B         28.6188   -13.4040   -17.6016 H            1 ACO1128   0.0000
    58 H7          29.3249   -11.2919   -17.9964 H            1 ACO1128   0.0000
    59 H3B         28.3361   -13.0845   -15.3265 H            1 ACO1128   0.0000
    60 H4B         30.8863   -11.7519   -15.2078 H            1 ACO1128   0.0000
    61 H5B1        29.6056   -11.8917   -13.1369 H            1 ACO1128   0.0000
    62 H5B2        31.0386   -12.6686   -13.0371 H            1 ACO1128   0.0000
    63 HCP1        31.9485   -17.5030   -12.3859 H            1 ACO1128   0.0000
    64 HCP2        30.5552   -18.1978   -12.8783 H            1 ACO1128   0.0000
    65 HDP1        33.3297   -20.3571   -10.7331 H            1 ACO1128   0.0000
    66 HDP2        33.6412   -18.8116   -11.1586 H            1 ACO1128   0.0000
    67 HDP3        32.5245   -19.1333   -10.0114 H            1 ACO1128   0.0000
    68 HEP1        32.9990   -20.7873   -13.1679 H            1 ACO1128   0.0000
    69 HEP2        31.9212   -19.8960   -14.0109 H            1 ACO1128   0.0000
    70 HEP3        33.2846   -19.2025   -13.4390 H            1 ACO1128   0.0000
    71 HAP         30.2803   -20.2820   -10.8425 H            1 ACO1128   0.0000
    72 H21         29.4768   -20.2793   -12.9597 H            1 ACO1128   0.0000
    73 H8P         31.2344   -22.7343   -12.9217 H            1 ACO1128   0.0000
    74 H7P1        32.0729   -24.8111   -12.3244 H            1 ACO1128   0.0000
    75 H7P2        32.1551   -24.3630   -10.7563 H            1 ACO1128   0.0000
    76 H6P1        34.1912   -23.2019   -11.1531 H            1 ACO1128   0.0000
    77 H6P2        34.0842   -23.5046   -12.7542 H            1 ACO1128   0.0000
    78 H4P         35.5155   -24.3795   -10.0304 H            1 ACO1128   0.0000
    79 H3P1        36.1385   -27.0386   -10.9978 H            1 ACO1128   0.0000
    80 H3P2        35.5052   -26.9148    -9.4978 H            1 ACO1128   0.0000
    81 H2P1        37.2726   -25.3865    -8.9424 H            1 ACO1128   0.0000
    82 H2P2        37.9403   -25.6917   -10.4010 H            1 ACO1128   0.0000
    83 HH31        37.4810   -28.7881    -5.7606 H            1 ACO1128   0.0000
    84 HH32        37.6525   -29.6760    -7.1204 H            1 ACO1128   0.0000
    85 HH33        38.9169   -28.8226    -6.5376 H            1 ACO1128   0.0000
@<TRIPOS>BOND
     1    1    2      ar
     2    1    6      ar
     3    2    3      ar
     4    3    4      ar
     5    4    5      ar
     6    4   10       1
     7    5    6      ar
     8    5    8       1
     9    6    7       1
    10    8    9       2
    11    9   10       1
    12   10   11       1
    13   11   12       1
    14   11   21       1
    15   12   13       1
    16   12   14       1
    17   14   15       1
    18   14   20       1
    19   15   16       1
    20   16   17      ar
    21   16   18      ar
    22   16   19      ar
    23   20   21       1
    24   20   22       1
    25   22   23       1
    26   23   24       1
    27   24   25      ar
    28   24   26      ar
    29   24   27       1
    30   27   28       1
    31   28   29      ar
    32   28   30      ar
    33   28   31       1
    34   31   33       1
    35   32   33       1
    36   32   34       1
    37   32   35       1
    38   32   36       1
    39   36   37       1
    40   36   38       1
    41   38   39       2
    42   38   40      am
    43   40   41       1
    44   41   42       1
    45   42   43       1
    46   43   44       2
    47   43   45      am
    48   45   46       1
    49   46   47       1
    50   47   48       1
    51   48   49       1
    52   49   50       2
    53   49   51       1
    54    2   52       1
    55    7   53       1
    56    7   54       1
    57    9   55       1
    58   11   56       1
    59   12   57       1
    60   13   58       1
    61   14   59       1
    62   51   85       1
    63   51   84       1
    64   20   60       1
    65   22   61       1
    66   22   62       1
    67   51   83       1
    68   47   82       1
    69   33   63       1
    70   33   64       1
    71   34   65       1
    72   34   66       1
    73   34   67       1
    74   35   68       1
    75   35   69       1
    76   35   70       1
    77   36   71       1
    78   37   72       1
    79   40   73       1
    80   41   74       1
    81   41   75       1
    82   42   76       1
    83   42   77       1
    84   45   78       1
    85   46   79       1
    86   46   80       1
    87   47   81       1
@<TRIPOS>SUBSTRUCTURE
     1 ACO1128     1 GROUP             4 B     ACO     0 **** ACO B1128
