@<TRIPOS>MOLECULE
2qen_ADP_1_ligand
   39    41     1     0     0
SMALL
NO_CHARGES


@<TRIPOS>ATOM
     1 PB          19.1350    10.7660    27.9950 P.3          1 ADP999   0.0000
     2 O1B         17.7350    10.2110    27.8920 O.co2        1 ADP999   0.0000
     3 O2B         19.7470    11.0250    26.6360 O.co2        1 ADP999  -1.0000
     4 O3B         19.3120    11.9270    28.9380 O.co2        1 ADP999  -1.0000
     5 PA          21.2950     8.7550    28.1770 P.3          1 ADP999   0.0000
     6 O1A         21.0590     7.9970    26.8970 O.co2        1 ADP999   0.0000
     7 O2A         22.5020     9.6280    28.3240 O.co2        1 ADP999  -1.0000
     8 O3A         19.9580     9.5570    28.6650 O.3          1 ADP999   0.0000
     9 O5'         21.3100     7.6180    29.3270 O.3          1 ADP999   0.0000
    10 C5'         21.8160     7.8440    30.6460 C.3          1 ADP999   0.0000
    11 C4'         22.8170     6.7270    30.9690 C.3          1 ADP999   0.0000
    12 O4'         22.1230     5.5220    31.3440 O.3          1 ADP999   0.0000
    13 C3'         23.7090     6.2940    29.8060 C.3          1 ADP999   0.0000
    14 O3'         24.9460     6.9950    29.7720 O.3          1 ADP999   0.0000
    15 C2'         24.0020     4.8590    30.1080 C.3          1 ADP999   0.0000
    16 O2'         24.8790     4.8780    31.2310 O.3          1 ADP999   0.0000
    17 C1'         22.7260     4.3780    30.7300 C.3          1 ADP999   0.0000
    18 N9          21.7140     3.7490    29.8520 N.pl3        1 ADP999   0.0000
    19 C8          20.6510     4.3800    29.3200 C.2          1 ADP999   0.0000
    20 N7          19.8610     3.5200    28.6340 N.2          1 ADP999   0.0000
    21 C5          20.4260     2.3020    28.7230 C.ar         1 ADP999   0.0000
    22 C6          20.1190     0.9440    28.2290 C.ar         1 ADP999   0.0000
    23 N6          19.0160     0.7080    27.4830 N.pl3        1 ADP999   0.0000
    24 N1          20.9760    -0.0570    28.5540 N.ar         1 ADP999   0.0000
    25 C2          22.0770     0.1640    29.2800 C.ar         1 ADP999   0.0000
    26 N3          22.4100     1.3670    29.7850 N.ar         1 ADP999   0.0000
    27 C4          21.6440     2.4570    29.5390 C.ar         1 ADP999   0.0000
    28 H5'1        21.0642     7.8268    31.3052 H            1 ADP999   0.0000
    29 H5'2        22.2741     8.7320    30.6860 H            1 ADP999   0.0000
    30 H4'         23.3953     7.0193    31.7307 H            1 ADP999   0.0000
    31 H3'         23.2258     6.3827    28.9350 H            1 ADP999   0.0000
    32 H5          24.7713     7.9749    29.6754 H            1 ADP999   0.0000
    33 H2'         24.3229     4.3196    29.3295 H            1 ADP999   0.0000
    34 H7          25.8266     4.9119    30.9134 H            1 ADP999   0.0000
    35 H1'         22.9592     3.7258    31.4512 H            1 ADP999   0.0000
    36 H9          20.4680     5.3582    29.4185 H            1 ADP999   0.0000
    37 H10         18.8220    -0.2169    27.1560 H            1 ADP999   0.0000
    38 H11         18.3944     1.4584    27.2583 H            1 ADP999   0.0000
    39 H12         22.6875    -0.6077    29.4579 H            1 ADP999   0.0000
@<TRIPOS>BOND
     1    1    2      ar
     2    1    3      ar
     3    1    4      ar
     4    1    8       1
     5    5    6      ar
     6    5    7      ar
     7    5    8       1
     8    5    9       1
     9    9   10       1
    10   10   11       1
    11   11   12       1
    12   11   13       1
    13   12   17       1
    14   13   14       1
    15   13   15       1
    16   15   16       1
    17   15   17       1
    18   17   18       1
    19   18   19       1
    20   18   27       1
    21   19   20       2
    22   20   21       1
    23   21   22      ar
    24   21   27      ar
    25   22   23       1
    26   22   24      ar
    27   24   25      ar
    28   25   26      ar
    29   26   27      ar
    30   25   39       1
    31   23   38       1
    32   23   37       1
    33   10   28       1
    34   10   29       1
    35   11   30       1
    36   13   31       1
    37   14   32       1
    38   15   33       1
    39   16   34       1
    40   17   35       1
    41   19   36       1
@<TRIPOS>SUBSTRUCTURE
     1 ADP999      1 GROUP             4 A     ADP     0 **** ADP A 999
