@<TRIPOS>MOLECULE
4tle_AGS_5_ligand
   43    45     1     0     0
SMALL
NO_CHARGES


@<TRIPOS>ATOM
     1 PG          47.4360    26.8660     8.9980 P.3          1 AGS303   0.0000
     2 S1G         45.9790    25.8100     9.5810 S.2          1 AGS303   0.0000
     3 O2G         48.3520    27.2510    10.1950 O.co2        1 AGS303  -1.0000
     4 O3G         48.3190    26.0540     7.9990 O.co2        1 AGS303  -1.0000
     5 PB          46.7380    29.5270     8.4720 P.3          1 AGS303   0.0000
     6 O1B         45.3150    29.9290     8.7880 O.co2        1 AGS303   0.0000
     7 O2B         47.8010    29.8890     9.4620 O.co2        1 AGS303  -1.0000
     8 O3B         46.7090    28.0030     8.2060 O.3          1 AGS303   0.0000
     9 PA          48.2450    31.0320     6.5550 P.3          1 AGS303   0.0000
    10 O1A         49.5090    30.2220     6.6880 O.co2        1 AGS303   0.0000
    11 O2A         48.2270    32.3140     7.2620 O.co2        1 AGS303  -1.0000
    12 O3A         46.9570    30.2030     7.0650 O.3          1 AGS303   0.0000
    13 O5'         47.7640    31.2660     5.0810 O.3          1 AGS303   0.0000
    14 C5'         48.2710    30.5440     4.0190 C.3          1 AGS303   0.0000
    15 C4'         47.3990    30.8010     2.8150 C.3          1 AGS303   0.0000
    16 O4'         47.6850    32.1010     2.2690 O.3          1 AGS303   0.0000
    17 C3'         47.7290    29.8140     1.7060 C.3          1 AGS303   0.0000
    18 O3'         46.8470    28.7170     1.8670 O.3          1 AGS303   0.0000
    19 C2'         47.4190    30.6000     0.4310 C.3          1 AGS303   0.0000
    20 O2'         46.0390    30.4850     0.1340 O.3          1 AGS303   0.0000
    21 C1'         47.5960    32.0600     0.8600 C.3          1 AGS303   0.0000
    22 N9          48.7580    32.7080     0.2770 N.pl3        1 AGS303   0.0000
    23 C8          50.0730    32.6160     0.6360 C.2          1 AGS303   0.0000
    24 N7          50.8800    33.3320    -0.1170 N.2          1 AGS303   0.0000
    25 C5          50.0250    33.9490    -1.0190 C.ar         1 AGS303   0.0000
    26 C6          50.2470    34.8740    -2.0610 C.ar         1 AGS303   0.0000
    27 N6          51.4510    35.3460    -2.3880 N.pl3        1 AGS303   0.0000
    28 N1          49.1690    35.2940    -2.7700 N.ar         1 AGS303   0.0000
    29 C2          47.9570    34.8250    -2.4480 C.ar         1 AGS303   0.0000
    30 N3          47.6310    33.9620    -1.4820 N.ar         1 AGS303   0.0000
    31 C4          48.7160    33.5760    -0.7870 C.ar         1 AGS303   0.0000
    32 H5'1        48.2650    29.5686     4.2392 H            1 AGS303   0.0000
    33 H5'2        49.2078    30.8367     3.8272 H            1 AGS303   0.0000
    34 H4'         46.4330    30.7335     3.0645 H            1 AGS303   0.0000
    35 H3'         48.6863    29.5267     1.7396 H            1 AGS303   0.0000
    36 H5          45.9020    29.0353     1.7922 H            1 AGS303   0.0000
    37 H2'         48.0062    30.3450    -0.3372 H            1 AGS303   0.0000
    38 H7          45.8895    29.6890    -0.4525 H            1 AGS303   0.0000
    39 H1'         46.7812    32.5691     0.5826 H            1 AGS303   0.0000
    40 H9          50.3926    32.0562     1.4005 H            1 AGS303   0.0000
    41 H10         51.5445    36.0010    -3.1378 H            1 AGS303   0.0000
    42 H11         52.2601    35.0448    -1.8833 H            1 AGS303   0.0000
    43 H12         47.1974    35.1648    -3.0025 H            1 AGS303   0.0000
@<TRIPOS>BOND
     1    1    2       2
     2    1    3      ar
     3    1    4      ar
     4    1    8       1
     5    5    6      ar
     6    5    7      ar
     7    5    8       1
     8    5   12       1
     9    9   10      ar
    10    9   11      ar
    11    9   12       1
    12    9   13       1
    13   13   14       1
    14   14   15       1
    15   15   16       1
    16   15   17       1
    17   16   21       1
    18   17   18       1
    19   17   19       1
    20   19   20       1
    21   19   21       1
    22   21   22       1
    23   22   23       1
    24   22   31       1
    25   23   24       2
    26   24   25       1
    27   25   26      ar
    28   25   31      ar
    29   26   27       1
    30   26   28      ar
    31   28   29      ar
    32   29   30      ar
    33   30   31      ar
    34   29   43       1
    35   27   42       1
    36   27   41       1
    37   23   40       1
    38   14   32       1
    39   14   33       1
    40   15   34       1
    41   17   35       1
    42   18   36       1
    43   19   37       1
    44   20   38       1
    45   21   39       1
@<TRIPOS>SUBSTRUCTURE
     1 AGS303      1 GROUP             4 E     AGS     0 **** AGS E 303
