@<TRIPOS>MOLECULE
3q8x_UD1_1_ligand
   64    66     1     0     0
SMALL
NO_CHARGES


@<TRIPOS>ATOM
     1 C1'        -15.1840    38.2420    57.5060 C.3          1 UD1288   0.0000
     2 C2'        -14.4200    37.2510    56.6250 C.3          1 UD1288   0.0000
     3 C3'        -12.9250    37.1590    56.9680 C.3          1 UD1288   0.0000
     4 C4'        -12.2880    38.5430    57.1470 C.3          1 UD1288   0.0000
     5 C5'        -13.1740    39.4370    58.0230 C.3          1 UD1288   0.0000
     6 C6'        -12.6510    40.8620    58.1490 C.3          1 UD1288   0.0000
     7 C7'        -15.6510    35.4310    55.6190 C.2          1 UD1288   0.0000
     8 C8'        -14.8000    34.4640    54.8400 C.3          1 UD1288   0.0000
     9 N2'        -15.0600    35.9490    56.6920 N.am         1 UD1288   0.0000
    10 O1'        -15.3220    37.7340    58.8390 O.3          1 UD1288   0.0000
    11 O3'        -12.2450    36.4470    55.9230 O.3          1 UD1288   0.0000
    12 O4'        -10.9820    38.4060    57.7270 O.3          1 UD1288   0.0000
    13 O5'        -14.5060    39.5020    57.4950 O.3          1 UD1288   0.0000
    14 O6'        -13.2890    41.4560    59.2920 O.3          1 UD1288   0.0000
    15 O7'        -16.7920    35.7370    55.2910 O.2          1 UD1288   0.0000
    16 N1         -22.1070    34.6480    55.1840 N.pl3        1 UD1288   0.0000
    17 C2         -23.3590    34.0250    54.9210 C.2          1 UD1288   0.0000
    18 N3         -23.6640    32.8610    55.5220 N.pl3        1 UD1288   0.0000
    19 C4         -22.8070    32.2760    56.3760 C.2          1 UD1288   0.0000
    20 C5         -21.5730    32.8630    56.6600 C.2          1 UD1288   0.0000
    21 C6         -21.2490    34.0670    56.0440 C.2          1 UD1288   0.0000
    22 O2         -24.1880    34.5390    54.1270 O.2          1 UD1288   0.0000
    23 O4         -23.1120    31.1920    56.9160 O.2          1 UD1288   0.0000
    24 C1B        -21.7790    35.9370    54.5570 C.3          1 UD1288   0.0000
    25 C2B        -22.7440    36.9400    55.1910 C.3          1 UD1288   0.0000
    26 O2'        -23.0520    37.9980    54.2670 O.3          1 UD1288   0.0000
    27 C3B        -21.9710    37.4070    56.4200 C.3          1 UD1288   0.0000
    28 C4B        -20.5460    37.4690    55.8800 C.3          1 UD1288   0.0000
    29 O4B        -20.4650    36.4000    54.9160 O.3          1 UD1288   0.0000
    30 O3B        -22.4380    38.6320    56.9940 O.3          1 UD1288   0.0000
    31 C5B        -19.4900    37.3120    56.9660 C.3          1 UD1288   0.0000
    32 O5B        -19.6230    36.0340    57.5910 O.3          1 UD1288   0.0000
    33 PA         -18.8890    35.7310    58.9820 P.3          1 UD1288   0.0000
    34 O1A        -18.7970    34.2360    59.1210 O.co2        1 UD1288   0.0000
    35 O2A        -19.5790    36.5540    60.0510 O.co2        1 UD1288  -1.0000
    36 O3A        -17.3970    36.3020    58.7410 O.3          1 UD1288   0.0000
    37 PB         -16.7860    37.5920    59.5040 P.3          1 UD1288   0.0000
    38 O1B        -17.6070    38.8050    59.1100 O.co2        1 UD1288   0.0000
    39 O2B        -16.5930    37.2540    60.9660 O.co2        1 UD1288  -1.0000
    40 H1'        -16.0974    38.3704    57.1198 H            1 UD1288   0.0000
    41 H2'        -14.4918    37.5721    55.6807 H            1 UD1288   0.0000
    42 H3'        -12.8237    36.6477    57.8214 H            1 UD1288   0.0000
    43 H4'        -12.1944    38.9699    56.2475 H            1 UD1288   0.0000
    44 H5'        -13.2178    39.0361    58.9381 H            1 UD1288   0.0000
    45 H6'1       -12.8744    41.3820    57.3245 H            1 UD1288   0.0000
    46 H6'2       -11.6594    40.8518    58.2782 H            1 UD1288   0.0000
    47 H8'1       -15.3165    34.1234    54.0544 H            1 UD1288   0.0000
    48 H8'2       -13.9747    34.9292    54.5200 H            1 UD1288   0.0000
    49 H8'3       -14.5435    33.6970    55.4282 H            1 UD1288   0.0000
    50 H11        -15.0563    35.4380    57.5516 H            1 UD1288   0.0000
    51 H12        -12.3618    36.9338    55.0573 H            1 UD1288   0.0000
    52 H13        -10.3977    39.1543    57.4130 H            1 UD1288   0.0000
    53 H6'        -12.9660    42.3959    59.4031 H            1 UD1288   0.0000
    54 H15        -24.5427    32.4238    55.3302 H            1 UD1288   0.0000
    55 H16        -20.9345    32.4265    57.2939 H            1 UD1288   0.0000
    56 H17        -20.3718    34.5048    56.2413 H            1 UD1288   0.0000
    57 H1B        -21.8933    35.8989    53.5643 H            1 UD1288   0.0000
    58 H2B        -23.5841    36.4757    55.4715 H            1 UD1288   0.0000
    59 H20        -24.0366    38.0123    54.0928 H            1 UD1288   0.0000
    60 H3B        -22.0170    36.6909    57.1165 H            1 UD1288   0.0000
    61 H4B        -20.4095    38.3429    55.4133 H            1 UD1288   0.0000
    62 H23        -21.8779    38.8620    57.7899 H            1 UD1288   0.0000
    63 H5B1       -19.6094    38.0305    57.6512 H            1 UD1288   0.0000
    64 H5B2       -18.5803    37.3886    56.5578 H            1 UD1288   0.0000
@<TRIPOS>BOND
     1    1    2       1
     2    1   10       1
     3    1   13       1
     4    2    3       1
     5    2    9       1
     6    3    4       1
     7    3   11       1
     8    4    5       1
     9    4   12       1
    10    5    6       1
    11    5   13       1
    12    6   14       1
    13    7    8       1
    14    7    9      am
    15    7   15       2
    16   10   37       1
    17   16   17       1
    18   16   21       1
    19   16   24       1
    20   17   18       1
    21   17   22       2
    22   18   19       1
    23   19   20       1
    24   19   23       2
    25   20   21       2
    26   24   25       1
    27   24   29       1
    28   25   26       1
    29   25   27       1
    30   27   28       1
    31   27   30       1
    32   28   29       1
    33   28   31       1
    34   31   32       1
    35   32   33       1
    36   33   34      ar
    37   33   35      ar
    38   33   36       1
    39   36   37       1
    40   37   38      ar
    41   37   39      ar
    42    1   40       1
    43    2   41       1
    44    3   42       1
    45    4   43       1
    46    5   44       1
    47    6   45       1
    48    6   46       1
    49    8   47       1
    50    8   48       1
    51    8   49       1
    52    9   50       1
    53   11   51       1
    54   12   52       1
    55   14   53       1
    56   18   54       1
    57   20   55       1
    58   21   56       1
    59   24   57       1
    60   25   58       1
    61   26   59       1
    62   27   60       1
    63   28   61       1
    64   30   62       1
    65   31   63       1
    66   31   64       1
@<TRIPOS>SUBSTRUCTURE
     1 UD1288      1 GROUP             4 D     UD1     0 **** UD1 D 288
