@<TRIPOS>MOLECULE
2aky_AP5_1_ligand
   81    86     1     0     0
SMALL
NO_CHARGES


@<TRIPOS>ATOM
     1 PA          10.4690    21.9620    18.6130 P.3          1 AP5301   0.0000
     2 O1A         10.5580    21.1900    17.4190 O.co2        1 AP5301   0.0000
     3 O2A         11.7610    22.1980    19.3150 O.co2        1 AP5301  -1.0000
     4 O3A          9.8910    23.3120    18.1970 O.3          1 AP5301   0.0000
     5 PB           9.8220    24.4240    17.1350 P.3          1 AP5301   0.0000
     6 O1B          8.6350    24.3280    16.4000 O.co2        1 AP5301   0.0000
     7 O2B         11.0600    24.3610    16.2800 O.co2        1 AP5301  -1.0000
     8 O3B          9.8190    25.7440    17.8580 O.3          1 AP5301   0.0000
     9 PG          10.6320    26.9920    18.2140 P.3          1 AP5301   0.0000
    10 O1G         10.2320    27.4210    19.5460 O.co2        1 AP5301   0.0000
    11 O2G         12.0410    26.6980    18.0350 O.co2        1 AP5301  -1.0000
    12 O3G         10.2260    28.0340    17.1680 O.3          1 AP5301   0.0000
    13 PD          10.2400    29.5500    16.9120 P.3          1 AP5301   0.0000
    14 O1D          9.8240    29.8370    15.5160 O.co2        1 AP5301   0.0000
    15 O2D          9.4840    30.2040    17.9470 O.co2        1 AP5301  -1.0000
    16 O3D         11.7170    29.8780    17.1760 O.3          1 AP5301   0.0000
    17 PE          13.1120    30.0930    16.6050 P.3          1 AP5301   0.0000
    18 O1E         14.1710    29.5220    17.3790 O.co2        1 AP5301   0.0000
    19 O2E         13.0590    29.8730    15.1440 O.co2        1 AP5301  -1.0000
    20 O5F          9.4870    21.4200    19.5450 O.3          1 AP5301   0.0000
    21 C5F          9.0790    22.1000    20.7450 C.3          1 AP5301   0.0000
    22 C4F          9.1240    21.1890    22.0020 C.3          1 AP5301   0.0000
    23 O4F          8.0470    20.2810    21.9040 O.3          1 AP5301   0.0000
    24 C3F         10.3840    20.3010    22.2680 C.3          1 AP5301   0.0000
    25 O3F         10.5410    20.0070    23.6320 O.3          1 AP5301   0.0000
    26 C2F         10.0410    19.0580    21.4480 C.3          1 AP5301   0.0000
    27 O2F         10.6040    17.8370    21.8720 O.3          1 AP5301   0.0000
    28 C1F          8.5200    19.0260    21.4340 C.3          1 AP5301   0.0000
    29 N9A          7.7500    18.3170    20.3860 N.pl3        1 AP5301   0.0000
    30 C8A          7.9050    18.4930    19.0410 C.2          1 AP5301   0.0000
    31 N7A          6.9760    17.9070    18.3530 N.2          1 AP5301   0.0000
    32 C5A          6.1300    17.2950    19.2380 C.ar         1 AP5301   0.0000
    33 C6A          4.9300    16.5510    19.1080 C.ar         1 AP5301   0.0000
    34 N6A          4.3710    16.2630    17.9160 N.pl3        1 AP5301   0.0000
    35 N1A          4.3350    16.1560    20.2570 N.ar         1 AP5301   0.0000
    36 C2A          4.9390    16.3570    21.4430 C.ar         1 AP5301   0.0000
    37 N3A          6.1140    16.9380    21.6830 N.ar         1 AP5301   0.0000
    38 C4A          6.6610    17.4790    20.5420 C.ar         1 AP5301   0.0000
    39 O5J         13.2970    31.5830    16.7020 O.3          1 AP5301   0.0000
    40 C5J         13.5610    32.2510    17.9520 C.3          1 AP5301   0.0000
    41 C4J         13.5640    33.7910    17.8540 C.3          1 AP5301   0.0000
    42 O4J         14.5620    34.2370    16.8970 O.3          1 AP5301   0.0000
    43 C3J         12.2560    34.3920    17.3320 C.3          1 AP5301   0.0000
    44 O3J         11.2200    34.4550    18.3390 O.3          1 AP5301   0.0000
    45 C2J         12.7210    35.7690    16.8630 C.3          1 AP5301   0.0000
    46 O2J         13.1050    36.6150    17.9520 O.3          1 AP5301   0.0000
    47 C1J         13.9480    35.2760    16.1130 C.3          1 AP5301   0.0000
    48 N9B         13.8890    35.0120    14.7070 N.pl3        1 AP5301   0.0000
    49 C8B         14.1730    33.8090    14.1190 C.2          1 AP5301   0.0000
    50 N7B         14.0060    33.8050    12.8470 N.2          1 AP5301   0.0000
    51 C5B         13.5460    35.0870    12.5490 C.ar         1 AP5301   0.0000
    52 C6B         13.1620    35.7170    11.3770 C.ar         1 AP5301   0.0000
    53 N6B         13.1510    35.0410    10.2260 N.pl3        1 AP5301   0.0000
    54 N1B         12.7040    36.9770    11.4630 N.ar         1 AP5301   0.0000
    55 C2B         12.6420    37.5870    12.6270 C.ar         1 AP5301   0.0000
    56 N3B         13.0960    37.1680    13.7900 N.ar         1 AP5301   0.0000
    57 C4B         13.4910    35.8680    13.7250 C.ar         1 AP5301   0.0000
    58 H5F1         8.1425    22.4286    20.6226 H            1 AP5301   0.0000
    59 H5F2         9.6887    22.8786    20.8934 H            1 AP5301   0.0000
    60 H4F          8.9735    21.7631    22.8068 H            1 AP5301   0.0000
    61 H3F         11.2059    20.7424    21.9079 H            1 AP5301   0.0000
    62 H5          11.3546    19.4397    23.7592 H            1 AP5301   0.0000
    63 H2F         10.3476    19.2216    20.5103 H            1 AP5301   0.0000
    64 H7          11.1725    17.4603    21.1406 H            1 AP5301   0.0000
    65 H1F          8.3363    18.4461    22.2277 H            1 AP5301   0.0000
    66 H8A          8.6526    19.0162    18.6319 H            1 AP5301   0.0000
    67 H6A1         3.5230    15.7345    17.8761 H            1 AP5301   0.0000
    68 H6A2         4.8042    16.5778    17.0715 H            1 AP5301   0.0000
    69 H2A          4.4426    16.0284    22.2465 H            1 AP5301   0.0000
    70 H5J1        14.4572    31.9555    18.2830 H            1 AP5301   0.0000
    71 H5J2        12.8571    31.9793    18.6082 H            1 AP5301   0.0000
    72 H4J         13.7707    34.1790    18.7522 H            1 AP5301   0.0000
    73 H3J         11.9315    33.8619    16.5486 H            1 AP5301   0.0000
    74 H17         11.6379    34.5662    19.2407 H            1 AP5301   0.0000
    75 H2J         12.0571    36.2078    16.2575 H            1 AP5301   0.0000
    76 H19         12.3099    37.1322    18.2687 H            1 AP5301   0.0000
    77 H1J         14.5914    36.0382    16.1842 H            1 AP5301   0.0000
    78 H8B         14.4817    33.0084    14.6327 H            1 AP5301   0.0000
    79 H6B1        12.8734    35.4975     9.3807 H            1 AP5301   0.0000
    80 H6B2        13.4203    34.0781    10.2091 H            1 AP5301   0.0000
    81 H2B         12.1939    38.4810    12.6289 H            1 AP5301   0.0000
@<TRIPOS>BOND
     1    1    2      ar
     2    1    3      ar
     3    1    4       1
     4    1   20       1
     5    4    5       1
     6    5    6      ar
     7    5    7      ar
     8    5    8       1
     9    8    9       1
    10    9   10      ar
    11    9   11      ar
    12    9   12       1
    13   12   13       1
    14   13   14      ar
    15   13   15      ar
    16   13   16       1
    17   16   17       1
    18   17   18      ar
    19   17   19      ar
    20   17   39       1
    21   20   21       1
    22   21   22       1
    23   22   23       1
    24   22   24       1
    25   23   28       1
    26   24   25       1
    27   24   26       1
    28   26   27       1
    29   26   28       1
    30   28   29       1
    31   29   30       1
    32   29   38       1
    33   30   31       2
    34   31   32       1
    35   32   33      ar
    36   32   38      ar
    37   33   34       1
    38   33   35      ar
    39   35   36      ar
    40   36   37      ar
    41   37   38      ar
    42   39   40       1
    43   40   41       1
    44   41   42       1
    45   41   43       1
    46   42   47       1
    47   43   44       1
    48   43   45       1
    49   45   46       1
    50   45   47       1
    51   47   48       1
    52   48   49       1
    53   48   57       1
    54   49   50       2
    55   50   51       1
    56   51   52      ar
    57   51   57      ar
    58   52   53       1
    59   52   54      ar
    60   54   55      ar
    61   55   56      ar
    62   56   57      ar
    63   55   81       1
    64   53   80       1
    65   53   79       1
    66   49   78       1
    67   47   77       1
    68   21   58       1
    69   21   59       1
    70   22   60       1
    71   24   61       1
    72   25   62       1
    73   26   63       1
    74   27   64       1
    75   28   65       1
    76   30   66       1
    77   34   67       1
    78   34   68       1
    79   36   69       1
    80   40   70       1
    81   40   71       1
    82   41   72       1
    83   43   73       1
    84   44   74       1
    85   45   75       1
    86   46   76       1
@<TRIPOS>SUBSTRUCTURE
     1 AP5301      1 GROUP             4 A     AP5     0 **** AP5 A 301
