@<TRIPOS>MOLECULE
4y95_746_3_ligand
   80    84     1     0     0
SMALL
NO_CHARGES


@<TRIPOS>ATOM
     1 C1         -34.4400    26.3820   -61.2130 C.ar         1 7461001   0.0000
     2 C2         -34.4990    27.1070   -62.3790 C.ar         1 7461001   0.0000
     3 C3         -33.2930    27.9000   -62.8960 C.3          1 7461001   0.0000
     4 C4         -35.6940    27.0690   -63.0750 C.ar         1 7461001   0.0000
     5 C5         -36.8130    26.4000   -62.6250 C.ar         1 7461001   0.0000
     6 C7         -36.7270    25.6750   -61.4590 C.ar         1 7461001   0.0000
     7 C9         -35.5280    25.6740   -60.7610 C.ar         1 7461001   0.0000
     8 C11        -33.2210    26.2900   -60.3430 C.2          1 7461001   0.0000
     9 N12        -33.4850    26.2710   -58.9340 N.2          1 7461001   0.0000
    10 C13        -32.3360    26.1580   -58.0910 C.2          1 7461001   0.0000
    11 C14        -30.9390    26.0800   -58.5940 C.2          1 7461001   0.0000
    12 O15        -30.0110    25.9880   -57.8630 O.2          1 7461001   0.0000
    13 N16        -30.7140    26.1310   -59.9970 N.pl3        1 7461001   0.0000
    14 C17        -31.8420    26.2160   -60.8700 C.2          1 7461001   0.0000
    15 N19        -35.7340    27.8550   -64.2720 N.am         1 7461001   0.0000
    16 C21        -35.1370    27.4370   -65.4940 C.2          1 7461001   0.0000
    17 O22        -34.6080    26.3650   -65.6120 O.2          1 7461001   0.0000
    18 C23        -35.1960    28.4610   -66.6250 C.ar         1 7461001   0.0000
    19 C24        -34.9690    28.0720   -67.9130 C.ar         1 7461001   0.0000
    20 C26        -34.9750    28.9800   -68.9720 C.ar         1 7461001   0.0000
    21 C28        -35.2300    30.3170   -68.7320 C.ar         1 7461001   0.0000
    22 C29        -35.4610    30.7250   -67.4180 C.ar         1 7461001   0.0000
    23 C31        -35.4440    29.8100   -66.3720 C.ar         1 7461001   0.0000
    24 C33        -35.2470    31.3240   -69.8810 C.3          1 7461001   0.0000
    25 C34        -36.6790    31.8260   -70.0280 C.3          1 7461001   0.0000
    26 C38        -34.8660    30.6790   -71.2060 C.3          1 7461001   0.0000
    27 C42        -34.3200    32.5160   -69.5560 C.3          1 7461001   0.0000
    28 C46        -33.5940    26.0510   -55.8920 C.ar         1 7461001   0.0000
    29 N47        -32.4030    26.0940   -56.6730 N.pl3        1 7461001   0.0000
    30 C48        -34.8840    26.1170   -56.3710 C.ar         1 7461001   0.0000
    31 C49        -35.9490    26.0120   -55.4840 C.ar         1 7461001   0.0000
    32 C50        -35.6580    25.8350   -54.1450 C.ar         1 7461001   0.0000
    33 C51        -34.3630    25.7330   -53.6990 C.ar         1 7461001   0.0000
    34 C52        -33.3140    25.8380   -54.5650 C.ar         1 7461001   0.0000
    35 C60        -29.3770    26.0900   -60.5570 C.3          1 7461001   0.0000
    36 C71        -36.7840    25.6990   -53.1020 C.2          1 7461001   0.0000
    37 O72        -37.6700    24.9610   -53.3120 O.2          1 7461001   0.0000
    38 C81        -37.5600    26.7020   -49.4260 C.3          1 7461001   0.0000
    39 C82        -37.8170    26.2750   -50.8700 C.3          1 7461001   0.0000
    40 N83        -36.7480    26.4330   -51.8370 N.am         1 7461001   0.0000
    41 C84        -35.6940    27.3570   -51.4690 C.3          1 7461001   0.0000
    42 C85        -35.4830    27.6130   -49.9820 C.3          1 7461001   0.0000
    43 O86        -36.6900    27.7940   -49.2850 O.3          1 7461001   0.0000
    44 H1         -33.5361    28.3559   -63.7522 H            1 7461001   0.0000
    45 H2         -33.0285    28.5849   -62.2170 H            1 7461001   0.0000
    46 H3         -32.5278    27.2764   -63.0560 H            1 7461001   0.0000
    47 H4         -37.6711    26.4412   -63.1369 H            1 7461001   0.0000
    48 H5         -37.5138    25.1585   -61.1210 H            1 7461001   0.0000
    49 H6         -35.4540    25.1485   -59.9134 H            1 7461001   0.0000
    50 H7         -31.6953    26.2256   -61.8591 H            1 7461001   0.0000
    51 H8         -36.2030    28.7379   -64.2476 H            1 7461001   0.0000
    52 H9         -34.7929    27.1063   -68.1037 H            1 7461001   0.0000
    53 H10        -34.7950    28.6640   -69.9035 H            1 7461001   0.0000
    54 H11        -35.6414    31.6897   -67.2260 H            1 7461001   0.0000
    55 H12        -35.6100    30.1196   -65.4357 H            1 7461001   0.0000
    56 H13        -36.7246    32.4895   -70.7748 H            1 7461001   0.0000
    57 H14        -37.2834    31.0552   -70.2295 H            1 7461001   0.0000
    58 H15        -36.9683    32.2625   -69.1761 H            1 7461001   0.0000
    59 H16        -34.8886    31.3677   -71.9307 H            1 7461001   0.0000
    60 H17        -33.9444    30.2969   -71.1379 H            1 7461001   0.0000
    61 H18        -35.5147    29.9486   -71.4199 H            1 7461001   0.0000
    62 H19        -34.3382    33.1686   -70.3135 H            1 7461001   0.0000
    63 H20        -34.6360    32.9659   -68.7207 H            1 7461001   0.0000
    64 H21        -33.3857    32.1852   -69.4234 H            1 7461001   0.0000
    65 H22        -31.5344    26.0776   -56.1777 H            1 7461001   0.0000
    66 H23        -35.0528    26.2395   -57.3490 H            1 7461001   0.0000
    67 H24        -36.8949    26.0629   -55.8045 H            1 7461001   0.0000
    68 H25        -34.1867    25.5797   -52.7267 H            1 7461001   0.0000
    69 H26        -32.3703    25.7621   -54.2431 H            1 7461001   0.0000
    70 H27        -29.4318    26.1368   -61.5544 H            1 7461001   0.0000
    71 H28        -28.8485    26.8672   -60.2153 H            1 7461001   0.0000
    72 H29        -28.9287    25.2377   -60.2874 H            1 7461001   0.0000
    73 H30        -37.1660    25.9242   -48.9363 H            1 7461001   0.0000
    74 H31        -38.4370    26.9467   -49.0124 H            1 7461001   0.0000
    75 H32        -38.5962    26.8070   -51.2013 H            1 7461001   0.0000
    76 H33        -38.0589    25.3049   -50.8527 H            1 7461001   0.0000
    77 H34        -35.8999    28.2357   -51.8997 H            1 7461001   0.0000
    78 H35        -34.8365    26.9980   -51.8375 H            1 7461001   0.0000
    79 H36        -34.9256    28.4364   -49.8753 H            1 7461001   0.0000
    80 H37        -35.0006    26.8306   -49.5882 H            1 7461001   0.0000
@<TRIPOS>BOND
     1    1    2      ar
     2    1    7      ar
     3    1    8       1
     4    2    3       1
     5    2    4      ar
     6    4    5      ar
     7    4   15       1
     8    5    6      ar
     9    6    7      ar
    10    8    9       1
    11    8   14       2
    12    9   10       2
    13   10   11       1
    14   10   29       1
    15   11   12       2
    16   11   13       1
    17   13   14       1
    18   13   35       1
    19   15   16      am
    20   16   17       2
    21   16   18       1
    22   18   19      ar
    23   18   23      ar
    24   19   20      ar
    25   20   21      ar
    26   21   22      ar
    27   21   24       1
    28   22   23      ar
    29   24   25       1
    30   24   26       1
    31   24   27       1
    32   28   29       1
    33   28   30      ar
    34   28   34      ar
    35   30   31      ar
    36   31   32      ar
    37   32   33      ar
    38   32   36       1
    39   33   34      ar
    40   36   37       2
    41   36   40      am
    42   38   39       1
    43   38   43       1
    44   39   40       1
    45   40   41       1
    46   41   42       1
    47   42   43       1
    48    3   44       1
    49    3   45       1
    50    3   46       1
    51    5   47       1
    52    6   48       1
    53    7   49       1
    54   14   50       1
    55   15   51       1
    56   19   52       1
    57   20   53       1
    58   22   54       1
    59   23   55       1
    60   25   56       1
    61   25   57       1
    62   25   58       1
    63   26   59       1
    64   26   60       1
    65   26   61       1
    66   27   62       1
    67   27   63       1
    68   27   64       1
    69   29   65       1
    70   30   66       1
    71   31   67       1
    72   33   68       1
    73   34   69       1
    74   35   70       1
    75   35   71       1
    76   35   72       1
    77   38   73       1
    78   38   74       1
    79   39   75       1
    80   39   76       1
    81   41   77       1
    82   41   78       1
    83   42   79       1
    84   42   80       1
@<TRIPOS>SUBSTRUCTURE
     1 7461001     1 GROUP             4 C     746     0 **** 746 C1001
