@<TRIPOS>MOLECULE
3evg_SAH_1_ligand
   46    48     1     0     0
SMALL
NO_CHARGES


@<TRIPOS>ATOM
     1 N          -91.2610    65.5860   -38.6640 N.4          1 SAH901   1.0000
     2 CA         -91.1260    64.1260   -38.8060 C.3          1 SAH901   0.0000
     3 CB         -90.9660    63.5030   -37.4240 C.3          1 SAH901   0.0000
     4 CG         -89.5170    63.0550   -37.2300 C.3          1 SAH901   0.0000
     5 SD         -89.1640    62.3740   -35.5670 S.3          1 SAH901   0.0000
     6 C          -92.3800    63.5780   -39.4650 C.2          1 SAH901   0.0000
     7 O          -93.4000    64.2780   -39.4000 O.co2        1 SAH901   0.0000
     8 OXT        -92.2910    62.4510   -40.0150 O.co2        1 SAH901  -1.0000
     9 C5'        -87.4760    63.0470   -35.3470 C.3          1 SAH901   0.0000
    10 C4'        -86.3620    62.3080   -36.1080 C.3          1 SAH901   0.0000
    11 O4'        -85.1040    62.9200   -35.7640 O.3          1 SAH901   0.0000
    12 C3'        -86.2370    60.8450   -35.6630 C.3          1 SAH901   0.0000
    13 O3'        -86.6800    59.9850   -36.7180 O.3          1 SAH901   0.0000
    14 C2'        -84.7280    60.6430   -35.4590 C.3          1 SAH901   0.0000
    15 O2'        -84.3150    59.5140   -36.2350 O.3          1 SAH901   0.0000
    16 C1'        -84.1390    61.9050   -36.0970 C.3          1 SAH901   0.0000
    17 N9         -82.8490    62.2660   -35.4560 N.pl3        1 SAH901   0.0000
    18 C8         -82.5870    62.2590   -34.1540 C.2          1 SAH901   0.0000
    19 N7         -81.3590    62.7280   -33.9450 N.2          1 SAH901   0.0000
    20 C5         -80.8300    63.0340   -35.1360 C.ar         1 SAH901   0.0000
    21 C6         -79.6210    63.5660   -35.5360 C.ar         1 SAH901   0.0000
    22 N6         -78.6660    63.8340   -34.6590 N.pl3        1 SAH901   0.0000
    23 N1         -79.4170    63.7770   -36.8560 N.ar         1 SAH901   0.0000
    24 C2         -80.3400    63.4790   -37.7390 C.ar         1 SAH901   0.0000
    25 N3         -81.5090    62.9640   -37.3890 N.ar         1 SAH901   0.0000
    26 C4         -81.7740    62.7370   -36.0950 C.ar         1 SAH901   0.0000
    27 H1         -90.3557    66.0094   -38.6983 H            1 SAH901   0.0000
    28 H2         -91.8243    65.9427   -39.4093 H            1 SAH901   0.0000
    29 HA         -90.3270    63.9128   -39.3683 H            1 SAH901   0.0000
    30 HB1        -91.5728    62.7123   -37.3428 H            1 SAH901   0.0000
    31 HB2        -91.2024    64.1779   -36.7250 H            1 SAH901   0.0000
    32 HG1        -88.9212    63.8441   -37.3796 H            1 SAH901   0.0000
    33 HG2        -89.3125    62.3495   -37.9086 H            1 SAH901   0.0000
    34 H5'1       -87.2564    63.0145   -34.3719 H            1 SAH901   0.0000
    35 H5'2       -87.4812    63.9980   -35.6560 H            1 SAH901   0.0000
    36 H4'        -86.5182    62.3610   -37.0943 H            1 SAH901   0.0000
    37 H3'        -86.7447    60.6765   -34.8181 H            1 SAH901   0.0000
    38 H12        -86.5983    59.0316   -36.4274 H            1 SAH901   0.0000
    39 H2'        -84.4822    60.5531   -34.4939 H            1 SAH901   0.0000
    40 H14        -84.8131    58.7014   -35.9324 H            1 SAH901   0.0000
    41 H1'        -84.0406    61.8035   -37.0870 H            1 SAH901   0.0000
    42 H16        -83.2155    61.9491   -33.4406 H            1 SAH901   0.0000
    43 H17        -77.7967    64.2193   -34.9685 H            1 SAH901   0.0000
    44 H18        -78.8140    63.6511   -33.6871 H            1 SAH901   0.0000
    45 H19        -80.1552    63.6460   -38.7075 H            1 SAH901   0.0000
    46 H20        -91.6947    65.7970   -37.7880 H            1 SAH901   0.0000
@<TRIPOS>BOND
     1    1    2       1
     2    2    3       1
     3    2    6       1
     4    3    4       1
     5    4    5       1
     6    5    9       1
     7    6    7      ar
     8    6    8      ar
     9    9   10       1
    10   10   11       1
    11   10   12       1
    12   11   16       1
    13   12   13       1
    14   12   14       1
    15   14   15       1
    16   14   16       1
    17   16   17       1
    18   17   18       1
    19   17   26       1
    20   18   19       2
    21   19   20       1
    22   20   21      ar
    23   20   26      ar
    24   21   22       1
    25   21   23      ar
    26   23   24      ar
    27   24   25      ar
    28   25   26      ar
    29    1   27       1
    30    1   28       1
    31    2   29       1
    32    3   30       1
    33    3   31       1
    34    4   32       1
    35    4   33       1
    36    1   46       1
    37    9   34       1
    38    9   35       1
    39   10   36       1
    40   12   37       1
    41   13   38       1
    42   14   39       1
    43   15   40       1
    44   16   41       1
    45   18   42       1
    46   22   43       1
    47   22   44       1
    48   24   45       1
@<TRIPOS>SUBSTRUCTURE
     1 SAH901      1 GROUP             4 A     SAH     0 **** SAH A 901
