@<TRIPOS>MOLECULE
1jil_485_1_ligand
   51    52     1     0     0
SMALL
NO_CHARGES


@<TRIPOS>ATOM
     1 O1          25.3940     7.2340    83.6780 O.3          1 485421   0.0000
     2 C2          26.5770     7.7550    83.3260 C.ar         1 485421   0.0000
     3 C3          27.2530     8.6040    84.2080 C.ar         1 485421   0.0000
     4 C4          28.5160     9.1540    83.8180 C.ar         1 485421   0.0000
     5 C5          29.0530     8.8310    82.5570 C.ar         1 485421   0.0000
     6 C6          28.3420     7.9560    81.6770 C.ar         1 485421   0.0000
     7 C7          27.1200     7.4330    82.0720 C.ar         1 485421   0.0000
     8 C8          30.3740     9.4080    82.1210 C.3          1 485421   0.0000
     9 C9          30.3560    10.9040    81.8700 C.3          1 485421   0.0000
    10 N10         29.2130    11.3250    80.9800 N.4          1 485421   1.0000
    11 C11         31.7220    11.3520    81.3210 C.2          1 485421   0.0000
    12 O12         31.8770    11.5220    80.1490 O.2          1 485421   0.0000
    13 N13         32.7040    11.5320    82.2170 N.am         1 485421   0.0000
    14 C14         34.1280    11.9840    81.9310 C.3          1 485421   0.0000
    15 C15         35.0240    10.8290    81.3040 C.2          1 485421   0.0000
    16 O16         34.4000     9.5790    81.3100 O.co2        1 485421   0.0000
    17 O17         36.1870    11.0400    80.8280 O.co2        1 485421  -1.0000
    18 C18         34.7180    12.5970    83.1920 C.3          1 485421   0.0000
    19 C19         34.0090    13.8940    83.5760 C.3          1 485421   0.0000
    20 C20         34.6110    14.4620    84.8880 C.3          1 485421   0.0000
    21 C21         34.5260    13.4490    86.0500 C.3          1 485421   0.0000
    22 C22         35.2370    12.0900    85.6240 C.3          1 485421   0.0000
    23 O23         34.5810    11.6560    84.3650 O.3          1 485421   0.0000
    24 O24         34.1700    14.8400    82.5490 O.3          1 485421   0.0000
    25 O25         33.8810    15.6110    85.2070 O.3          1 485421   0.0000
    26 O26         33.1260    13.2250    86.2990 O.3          1 485421   0.0000
    27 C27         35.1070    10.9150    86.6270 C.3          1 485421   0.0000
    28 H1          24.9082     6.6266    83.0494 H            1 485421   0.0000
    29 H2          26.8590     8.8243    85.1003 H            1 485421   0.0000
    30 H3          29.0130     9.7628    84.4363 H            1 485421   0.0000
    31 H4          28.7237     7.7229    80.7826 H            1 485421   0.0000
    32 H5          26.6211     6.8211    81.4582 H            1 485421   0.0000
    33 H6          30.6493     8.9527    81.2743 H            1 485421   0.0000
    34 H7          31.0480     9.2194    82.8352 H            1 485421   0.0000
    35 H8          30.2274    11.3536    82.7539 H            1 485421   0.0000
    36 H9          28.4141    11.5388    81.5422 H            1 485421   0.0000
    37 H10         29.4787    12.1347    80.4568 H            1 485421   0.0000
    38 H11         32.4759    11.3499    83.1735 H            1 485421   0.0000
    39 H12         34.0721    12.7136    81.2494 H            1 485421   0.0000
    40 H13         35.6875    12.7883    83.0388 H            1 485421   0.0000
    41 H14         33.0348    13.7123    83.7097 H            1 485421   0.0000
    42 H15         35.5675    14.7095    84.7336 H            1 485421   0.0000
    43 H16         34.9644    13.8249    86.8664 H            1 485421   0.0000
    44 H17         36.2053    12.2663    85.4470 H            1 485421   0.0000
    45 H18         33.3776    15.4497    82.5302 H            1 485421   0.0000
    46 H19         33.9627    16.2749    84.4637 H            1 485421   0.0000
    47 H20         33.0211    12.5714    87.0485 H            1 485421   0.0000
    48 H21         35.5854    10.1144    86.2663 H            1 485421   0.0000
    49 H22         35.5112    11.1782    87.5030 H            1 485421   0.0000
    50 H23         34.1405    10.6945    86.7586 H            1 485421   0.0000
    51 H24         28.9886    10.5806    80.3511 H            1 485421   0.0000
@<TRIPOS>BOND
     1    1    2       1
     2    2    3      ar
     3    2    7      ar
     4    3    4      ar
     5    4    5      ar
     6    5    6      ar
     7    5    8       1
     8    6    7      ar
     9    8    9       1
    10    9   10       1
    11    9   11       1
    12   11   12       2
    13   11   13      am
    14   13   14       1
    15   14   15       1
    16   14   18       1
    17   15   16      ar
    18   15   17      ar
    19   18   19       1
    20   18   23       1
    21   19   20       1
    22   19   24       1
    23   20   21       1
    24   20   25       1
    25   21   22       1
    26   21   26       1
    27   22   23       1
    28   22   27       1
    29    1   28       1
    30    3   29       1
    31    4   30       1
    32    6   31       1
    33    7   32       1
    34    8   33       1
    35    8   34       1
    36    9   35       1
    37   10   36       1
    38   10   37       1
    39   13   38       1
    40   14   39       1
    41   10   51       1
    42   18   40       1
    43   19   41       1
    44   20   42       1
    45   21   43       1
    46   22   44       1
    47   24   45       1
    48   25   46       1
    49   26   47       1
    50   27   48       1
    51   27   49       1
    52   27   50       1
@<TRIPOS>SUBSTRUCTURE
     1 485421      1 GROUP             4 A     485     0 **** 485 A 421
