@<TRIPOS>MOLECULE
3k24_GLN_LEU_ALA_2_ligand
   49    48     3     0     0
SMALL
NO_CHARGES


@<TRIPOS>ATOM
     1 N           -4.4280   -39.1300    -3.9380 N.4          1 GLN109   1.0000
     2 CA          -4.3200   -38.2200    -5.1170 C.3          1 GLN109   0.0000
     3 C           -4.2520   -36.7580    -4.6830 C.2          1 GLN109   0.0000
     4 O           -4.5350   -36.4280    -3.5310 O.2          1 GLN109   0.0000
     5 CB          -5.5020   -38.4250    -6.0710 C.3          1 GLN109   0.0000
     6 CG          -5.7720   -39.8760    -6.4420 C.3          1 GLN109   0.0000
     7 CD          -4.5490   -40.5760    -7.0050 C.2          1 GLN109   0.0000
     8 OE1         -3.6675   -41.0084    -6.2598 O.2          1 GLN109   0.0000
     9 NE2         -4.5059   -40.7209    -8.3258 N.am         1 GLN109   0.0000
    10 H1          -3.9632   -39.9924    -4.1389 H            1 GLN109   0.0000
    11 H2          -4.0009   -38.6983    -3.1435 H            1 GLN109   0.0000
    12 HA          -3.4777   -38.4413    -5.6084 H            1 GLN109   0.0000
    13 HB1         -5.3156   -37.9174    -6.9122 H            1 GLN109   0.0000
    14 HB2         -6.3228   -38.0567    -5.6344 H            1 GLN109   0.0000
    15 HG1         -6.4986   -39.9004    -7.1287 H            1 GLN109   0.0000
    16 HG2         -6.0712   -40.3650    -5.6226 H            1 GLN109   0.0000
    17 HE21        -3.7491   -41.2182    -8.7499 H            1 GLN109   0.0000
    18 HE22        -5.2304   -40.3325    -8.8953 H            1 GLN109   0.0000
    19 N           -3.9230   -35.8840    -5.6280 N.am         2 LEU110   0.0000
    20 CA          -3.8980   -34.4460    -5.3800 C.3          2 LEU110   0.0000
    21 C           -4.7990   -33.7110    -6.3740 C.2          2 LEU110   0.0000
    22 O           -4.8880   -34.0930    -7.5430 O.2          2 LEU110   0.0000
    23 CB          -2.4620   -33.9180    -5.4620 C.3          2 LEU110   0.0000
    24 CG          -1.3890   -34.8360    -4.8690 C.3          2 LEU110   0.0000
    25 CD1         -0.0280   -34.5710    -5.4860 C.3          2 LEU110   0.0000
    26 CD2         -1.3280   -34.7140    -3.3530 C.3          2 LEU110   0.0000
    27 H10         -3.6849   -36.2223    -6.5384 H            2 LEU110   0.0000
    28 H11         -4.2438   -34.2787    -4.4567 H            2 LEU110   0.0000
    29 H12         -2.4257   -33.0459    -4.9740 H            2 LEU110   0.0000
    30 H13         -2.2425   -33.7698    -6.4263 H            2 LEU110   0.0000
    31 HG          -1.6423   -35.7785    -5.0872 H            2 LEU110   0.0000
    32 HD11         0.6480   -35.1849    -5.0784 H            2 LEU110   0.0000
    33 HD12        -0.0721   -34.7313    -6.4721 H            2 LEU110   0.0000
    34 HD13         0.2369   -33.6222    -5.3141 H            2 LEU110   0.0000
    35 HD21        -0.6198   -35.3241    -2.9977 H            2 LEU110   0.0000
    36 HD22        -1.1111   -33.7704    -3.1030 H            2 LEU110   0.0000
    37 HD23        -2.2130   -34.9674    -2.9623 H            2 LEU110   0.0000
    38 N           -5.5290   -32.7120    -5.8830 N.am         3 ALA111   0.0000
    39 CA          -6.7580   -32.2630    -6.5360 C.3          3 ALA111   0.0000
    40 C           -6.6700   -30.8160    -7.0260 C.2          3 ALA111   0.0000
    41 O           -6.0250   -29.9720    -6.4030 O.2          3 ALA111   0.0000
    42 CB          -7.9520   -32.4460    -5.6070 C.3          3 ALA111   0.0000
    43 H21         -5.2289   -32.2563    -5.0450 H            3 ALA111   0.0000
    44 H22         -6.9053   -32.8447    -7.3359 H            3 ALA111   0.0000
    45 H23         -7.1440   -30.5514    -7.8658 H            3 ALA111   0.0000
    46 H24         -8.7834   -32.1349    -6.0675 H            3 ALA111   0.0000
    47 H25         -8.0445   -33.4130    -5.3696 H            3 ALA111   0.0000
    48 HB3         -7.8117   -31.9102    -4.7744 H            3 ALA111   0.0000
    49 H27         -5.3922   -39.3087    -3.7421 H            3 ALA111   0.0000
@<TRIPOS>BOND
     1    1    2       1
     2    2    5       1
     3    2    3       1
     4    5    6       1
     5    6    7       1
     6    7    8       2
     7    7    9      am
     8    3    4       2
     9    1   10       1
    10    1   11       1
    11    2   12       1
    12    3   19      am
    13    5   13       1
    14    5   14       1
    15    6   15       1
    16    6   16       1
    17    9   17       1
    18    9   18       1
    19   19   20       1
    20   20   23       1
    21   20   21       1
    22   23   24       1
    23   24   25       1
    24   24   26       1
    25   21   22       2
    26   26   37       1
    27   19   27       1
    28   20   28       1
    29   21   38      am
    30   23   29       1
    31   23   30       1
    32   24   31       1
    33   25   32       1
    34   25   33       1
    35   25   34       1
    36   26   35       1
    37   26   36       1
    38   38   39       1
    39   39   42       1
    40   39   40       1
    41   40   41       2
    42   42   48       1
    43   38   43       1
    44   39   44       1
    45   40   45       1
    46   42   46       1
    47   42   47       1
    48    1   49       1
@<TRIPOS>SUBSTRUCTURE
     1 GLN109      1 RESIDUE           4 D     GLN     0 **** GLN D 109
     2 LEU110     19 RESIDUE           4 D     LEU     0 **** LEU D 110
     3 ALA111     38 RESIDUE           4 D     ALA     0 **** ALA D 111
