@<TRIPOS>MOLECULE
3tlj_SAH_2_ligand
   46    48     1     0     0
SMALL
NO_CHARGES


@<TRIPOS>ATOM
     1 N            3.9390     9.2380    19.1490 N.4          1 SAH401   1.0000
     2 CA           3.7540     9.4580    20.6130 C.3          1 SAH401   0.0000
     3 CB           3.4580     8.1300    21.3250 C.3          1 SAH401   0.0000
     4 CG           1.9990     7.7080    21.1170 C.3          1 SAH401   0.0000
     5 SD           1.6370     6.1790    21.9240 S.3          1 SAH401   0.0000
     6 C            4.9290    10.2140    21.2020 C.2          1 SAH401   0.0000
     7 O            4.8250    10.7870    22.2940 O.co2        1 SAH401   0.0000
     8 OXT          6.0000    10.3590    20.6010 O.co2        1 SAH401  -1.0000
     9 C5'         -0.1320     6.1830    22.0680 C.3          1 SAH401   0.0000
    10 C4'         -0.7620     7.4110    22.7420 C.3          1 SAH401   0.0000
    11 O4'         -2.1520     7.4430    22.3930 O.3          1 SAH401   0.0000
    12 C3'         -0.7070     7.3890    24.2750 C.3          1 SAH401   0.0000
    13 O3'         -0.2950     8.6850    24.7160 O.3          1 SAH401   0.0000
    14 C2'         -2.1380     7.1580    24.7270 C.3          1 SAH401   0.0000
    15 O2'         -2.4870     7.8910    25.9060 O.3          1 SAH401   0.0000
    16 C1'         -2.9130     7.7520    23.5610 C.3          1 SAH401   0.0000
    17 N9          -4.3140     7.2740    23.4940 N.pl3        1 SAH401   0.0000
    18 C8          -4.7940     6.0740    23.9040 C.2          1 SAH401   0.0000
    19 N7          -6.1330     6.0080    23.7330 N.2          1 SAH401   0.0000
    20 C5          -6.5150     7.1840    23.1860 C.ar         1 SAH401   0.0000
    21 C6          -7.7850     7.7910    22.7390 C.ar         1 SAH401   0.0000
    22 N6          -8.9320     7.0860    22.8230 N.pl3        1 SAH401   0.0000
    23 N1          -7.7670     9.0610    22.2730 N.ar         1 SAH401   0.0000
    24 C2          -6.6260     9.7670    22.1730 C.ar         1 SAH401   0.0000
    25 N3          -5.4310     9.2850    22.5690 N.ar         1 SAH401   0.0000
    26 C4          -5.3240     8.0260    23.0680 C.ar         1 SAH401   0.0000
    27 H1           3.0569     9.3214    18.6853 H            1 SAH401   0.0000
    28 H2           4.5721     9.9219    18.7865 H            1 SAH401   0.0000
    29 HA           2.9464    10.0373    20.7236 H            1 SAH401   0.0000
    30 HB1          3.6306     8.2383    22.3040 H            1 SAH401   0.0000
    31 HB2          4.0592     7.4206    20.9570 H            1 SAH401   0.0000
    32 HG1          1.8284     7.6051    20.1371 H            1 SAH401   0.0000
    33 HG2          1.4006     8.4188    21.4868 H            1 SAH401   0.0000
    34 H5'1        -0.3955     5.3770    22.5980 H            1 SAH401   0.0000
    35 H5'2        -0.5121     6.1143    21.1456 H            1 SAH401   0.0000
    36 H4'         -0.3158     8.2402    22.4054 H            1 SAH401   0.0000
    37 H3'         -0.0945     6.6736    24.6113 H            1 SAH401   0.0000
    38 H12         -0.6048     9.3741    24.0609 H            1 SAH401   0.0000
    39 H2'         -2.3327     6.1830    24.8340 H            1 SAH401   0.0000
    40 H14         -2.3810     8.8703    25.7333 H            1 SAH401   0.0000
    41 H1'         -2.9274     8.7459    23.6700 H            1 SAH401   0.0000
    42 H16         -4.2331     5.3374    24.2818 H            1 SAH401   0.0000
    43 H17         -9.7933     7.4946    22.5210 H            1 SAH401   0.0000
    44 H18         -8.9210     6.1548    23.1872 H            1 SAH401   0.0000
    45 H19         -6.6662    10.6892    21.7883 H            1 SAH401   0.0000
    46 H20          4.3119     8.3232    18.9939 H            1 SAH401   0.0000
@<TRIPOS>BOND
     1    1    2       1
     2    2    3       1
     3    2    6       1
     4    3    4       1
     5    4    5       1
     6    5    9       1
     7    6    7      ar
     8    6    8      ar
     9    9   10       1
    10   10   11       1
    11   10   12       1
    12   11   16       1
    13   12   13       1
    14   12   14       1
    15   14   15       1
    16   14   16       1
    17   16   17       1
    18   17   18       1
    19   17   26       1
    20   18   19       2
    21   19   20       1
    22   20   21      ar
    23   20   26      ar
    24   21   22       1
    25   21   23      ar
    26   23   24      ar
    27   24   25      ar
    28   25   26      ar
    29    1   27       1
    30    1   28       1
    31    2   29       1
    32    3   30       1
    33    3   31       1
    34    4   32       1
    35    4   33       1
    36    1   46       1
    37    9   34       1
    38    9   35       1
    39   10   36       1
    40   12   37       1
    41   13   38       1
    42   14   39       1
    43   15   40       1
    44   16   41       1
    45   18   42       1
    46   22   43       1
    47   22   44       1
    48   24   45       1
@<TRIPOS>SUBSTRUCTURE
     1 SAH401      1 GROUP             4 B     SAH     0 **** SAH B 401
