@<TRIPOS>MOLECULE
2xrh_NIO_1_ligand
   13    13     1     0     0
SMALL
NO_CHARGES


@<TRIPOS>ATOM
     1 N           -6.8950    11.4620    -6.1300 N.ar         1 NIO200   0.0000
     2 C1          -5.6260    11.0710    -6.3690 C.ar         1 NIO200   0.0000
     3 C2          -5.3700     9.8900    -7.0890 C.ar         1 NIO200   0.0000
     4 C3          -6.3970     9.1050    -7.5270 C.ar         1 NIO200   0.0000
     5 C4          -7.6860     9.5430    -7.2640 C.ar         1 NIO200   0.0000
     6 C5          -7.9110    10.7220    -6.5590 C.ar         1 NIO200   0.0000
     7 C6          -3.9760     9.4070    -7.2730 C.2          1 NIO200   0.0000
     8 O1          -3.8090     8.1550    -7.3440 O.co2        1 NIO200   0.0000
     9 O2          -3.0410    10.2180    -7.2730 O.co2        1 NIO200  -1.0000
    10 H1          -4.8635    11.6236    -6.0326 H            1 NIO200   0.0000
    11 H2          -6.2270     8.2500    -8.0169 H            1 NIO200   0.0000
    12 H3          -8.4649     9.0044    -7.5853 H            1 NIO200   0.0000
    13 H4          -8.8488    11.0153    -6.3733 H            1 NIO200   0.0000
@<TRIPOS>BOND
     1    1    2      ar
     2    1    6      ar
     3    2    3      ar
     4    3    4      ar
     5    3    7       1
     6    4    5      ar
     7    5    6      ar
     8    7    8      ar
     9    7    9      ar
    10    2   10       1
    11    4   11       1
    12    5   12       1
    13    6   13       1
@<TRIPOS>SUBSTRUCTURE
     1 NIO200      1 GROUP             4 A     NIO     0 **** NIO A 200
