@<TRIPOS>MOLECULE
1n4s_CYS_VAL_ILE_LEU_GER_4_ligand
   66    65     4     0     0
SMALL
NO_CHARGES


@<TRIPOS>ATOM
     1 N           71.7630   109.6430    30.0100 N.4          1 CYS408   1.0000
     2 CA          72.0710   108.2390    30.2910 C.3          1 CYS408   0.0000
     3 C           70.9960   107.3110    29.6990 C.2          1 CYS408   0.0000
     4 O           69.8260   107.3480    30.0930 O.2          1 CYS408   0.0000
     5 CB          72.1760   108.0190    31.8060 C.3          1 CYS408   0.0000
     6 SG          73.2260   106.5890    32.3500 S.3          1 CYS408   0.0000
     7 H1          71.6962   109.7782    29.0214 H            1 CYS408   0.0000
     8 H2          70.8930   109.8858    30.4391 H            1 CYS408   0.0000
     9 HA          72.9517   108.0151    29.8736 H            1 CYS408   0.0000
    10 HB1         71.2519   107.8714    32.1584 H            1 CYS408   0.0000
    11 HB2         72.5581   108.8501    32.2100 H            1 CYS408   0.0000
    12 N           71.4100   106.4590    28.7680 N.am         2 VAL409   0.0000
    13 CA          70.4890   105.5490    28.1100 C.3          2 VAL409   0.0000
    14 C           69.8330   104.4870    29.0050 C.2          2 VAL409   0.0000
    15 O           68.6970   104.0910    28.7500 O.2          2 VAL409   0.0000
    16 CB          71.1910   104.8560    26.9100 C.3          2 VAL409   0.0000
    17 CG1         71.6530   105.9080    25.9040 C.3          2 VAL409   0.0000
    18 CG2         72.3810   104.0490    27.3890 C.3          2 VAL409   0.0000
    19 H6          72.3772   106.4438    28.5145 H            2 VAL409   0.0000
    20 H7          69.7502   106.1067    27.7317 H            2 VAL409   0.0000
    21 HB          70.5404   104.2421    26.4629 H            2 VAL409   0.0000
    22 HG11        72.1041   105.4572    25.1337 H            2 VAL409   0.0000
    23 HG12        70.8620   106.4223    25.5726 H            2 VAL409   0.0000
    24 HG13        72.2954   106.5334    26.3470 H            2 VAL409   0.0000
    25 HG21        72.8222   103.6093    26.6067 H            2 VAL409   0.0000
    26 HG22        73.0341   104.6553    27.8427 H            2 VAL409   0.0000
    27 HG23        72.0719   103.3498    28.0337 H            2 VAL409   0.0000
    28 N           70.5130   104.0440    30.0600 N.am         3 ILE410   0.0000
    29 CA          69.9460   102.9930    30.9040 C.3          3 ILE410   0.0000
    30 C           69.4330   103.3520    32.2980 C.2          3 ILE410   0.0000
    31 O           69.0530   102.4550    33.0510 O.2          3 ILE410   0.0000
    32 CB          70.9440   101.8110    31.0830 C.3          3 ILE410   0.0000
    33 CG1         72.1610   102.2680    31.8890 C.3          3 ILE410   0.0000
    34 CG2         71.3610   101.2580    29.7210 C.3          3 ILE410   0.0000
    35 CD1         73.0960   101.1320    32.2500 C.3          3 ILE410   0.0000
    36 H15         71.4103   104.4293    30.2751 H            3 ILE410   0.0000
    37 H16         69.1625   102.6245    30.4037 H            3 ILE410   0.0000
    38 H17         70.4836   101.0834    31.5916 H            3 ILE410   0.0000
    39 H18         71.8405   102.6969    32.7336 H            3 ILE410   0.0000
    40 H19         72.6685   102.9377    31.3468 H            3 ILE410   0.0000
    41 H20         72.0010   100.5006    29.8505 H            3 ILE410   0.0000
    42 H21         70.5522   100.9311    29.2322 H            3 ILE410   0.0000
    43 H22         71.8027   101.9804    29.1890 H            3 ILE410   0.0000
    44 HD11        73.8690   101.4901    32.7737 H            3 ILE410   0.0000
    45 HD12        72.6041   100.4576    32.8007 H            3 ILE410   0.0000
    46 HD13        73.4321   100.6984    31.4139 H            3 ILE410   0.0000
    47 N           69.4140   104.6330    32.6550 N.am         4 LEU411   0.0000
    48 CA          68.9380   105.0290    33.9810 C.3          4 LEU411   0.0000
    49 C           68.2200   106.3720    33.9960 C.2          4 LEU411   0.0000
    50 O           67.2850   106.5330    34.8100 O.co2        4 LEU411   0.0000
    51 CB          70.1010   105.0470    34.9820 C.3          4 LEU411   0.0000
    52 CG          70.5080   103.6670    35.5020 C.3          4 LEU411   0.0000
    53 CD1         71.7660   103.7580    36.3540 C.3          4 LEU411   0.0000
    54 CD2         69.3560   103.0960    36.3060 C.3          4 LEU411   0.0000
    55 OXT         68.6080   107.2550    33.2040 O.co2        4 LEU411  -1.0000
    56 H26         69.7277   105.3316    32.0119 H            4 LEU411   0.0000
    57 H27         68.2866   104.3350    34.2876 H            4 LEU411   0.0000
    58 H28         69.8320   105.6092    35.7640 H            4 LEU411   0.0000
    59 H29         70.8941   105.4585    34.5328 H            4 LEU411   0.0000
    60 HG          70.6876   103.0671    34.7223 H            4 LEU411   0.0000
    61 H31         72.0129   102.8463    36.6824 H            4 LEU411   0.0000
    62 H32         72.5148   104.1284    35.8043 H            4 LEU411   0.0000
    63 H33         71.5968   104.3591    37.1351 H            4 LEU411   0.0000
    64 HD21        69.6073   102.1925    36.6532 H            4 LEU411   0.0000
    65 HD22        69.1521   103.7033    37.0739 H            4 LEU411   0.0000
    66 HD23        68.5489   103.0157    35.7211 H            4 LEU411   0.0000
@<TRIPOS>BOND
     1    1    2       1
     2    2    5       1
     3    2    3       1
     4    5    6       1
     5    3    4       2
     6    1    7       1
     7    1    8       1
     8    2    9       1
     9    3   12      am
    10    5   10       1
    11    5   11       1
    12   12   13       1
    13   13   16       1
    14   13   14       1
    15   16   17       1
    16   16   18       1
    17   14   15       2
    18   18   27       1
    19   12   19       1
    20   13   20       1
    21   14   28      am
    22   16   21       1
    23   17   22       1
    24   17   23       1
    25   17   24       1
    26   18   25       1
    27   18   26       1
    28   28   29       1
    29   29   32       1
    30   29   30       1
    31   32   34       1
    32   32   33       1
    33   33   35       1
    34   30   31       2
    35   35   46       1
    36   28   36       1
    37   29   37       1
    38   30   47      am
    39   32   38       1
    40   33   39       1
    41   33   40       1
    42   34   41       1
    43   34   42       1
    44   34   43       1
    45   35   44       1
    46   35   45       1
    47   47   48       1
    48   48   51       1
    49   48   49       1
    50   51   52       1
    51   52   53       1
    52   52   54       1
    53   49   50      ar
    54   49   55      ar
    55   54   66       1
    56   47   56       1
    57   48   57       1
    58   51   58       1
    59   51   59       1
    60   52   60       1
    61   53   61       1
    62   53   62       1
    63   53   63       1
    64   54   64       1
    65   54   65       1
@<TRIPOS>SUBSTRUCTURE
     1 CYS408      1 RESIDUE           4 P     CYS     0 **** CYS P 408
     2 VAL409     12 RESIDUE           4 P     VAL     0 **** VAL P 409
     3 ILE410     28 RESIDUE           4 P     ILE     0 **** ILE P 410
     4 LEU411     47 RESIDUE           4 P     LEU     0 **** LEU P 411
