@<TRIPOS>MOLECULE
4z0h_NAD_1_ligand
   70    74     1     0     0
SMALL
NO_CHARGES


@<TRIPOS>ATOM
     1 PA          38.4380    43.7870   244.6590 P.3          1 NAD401   0.0000
     2 O1A         37.8910    43.9420   243.2520 O.co2        1 NAD401   0.0000
     3 O2A         38.0520    42.4970   245.2240 O.co2        1 NAD401  -1.0000
     4 O5B         37.7940    44.9620   245.5210 O.3          1 NAD401   0.0000
     5 C5B         37.1320    46.1030   245.0510 C.3          1 NAD401   0.0000
     6 C4B         35.9620    46.3440   245.9440 C.3          1 NAD401   0.0000
     7 O4B         35.5960    47.7200   245.9480 O.3          1 NAD401   0.0000
     8 C3B         34.7520    45.5890   245.4580 C.3          1 NAD401   0.0000
     9 O3B         34.1680    44.8930   246.5090 O.3          1 NAD401   0.0000
    10 C2B         33.7900    46.6730   244.9980 C.3          1 NAD401   0.0000
    11 O2B         32.4490    46.2660   245.0310 O.3          1 NAD401   0.0000
    12 C1B         34.1690    47.8580   245.8350 C.3          1 NAD401   0.0000
    13 N9A         33.9210    49.1690   245.1940 N.pl3        1 NAD401   0.0000
    14 C8A         34.1400    49.5680   243.8910 C.2          1 NAD401   0.0000
    15 N7A         33.8220    50.8790   243.7600 N.2          1 NAD401   0.0000
    16 C5A         33.4160    51.3290   244.9520 C.ar         1 NAD401   0.0000
    17 C6A         32.9710    52.5540   245.3990 C.ar         1 NAD401   0.0000
    18 N6A         33.0130    53.6390   244.5990 N.pl3        1 NAD401   0.0000
    19 N1A         32.6140    52.7020   246.7270 N.ar         1 NAD401   0.0000
    20 C2A         32.7110    51.6500   247.5820 C.ar         1 NAD401   0.0000
    21 N3A         33.1440    50.4420   247.1240 N.ar         1 NAD401   0.0000
    22 C4A         33.4860    50.2780   245.8420 C.ar         1 NAD401   0.0000
    23 O3          39.9520    44.0810   244.6650 O.3          1 NAD401   0.0000
    24 PN          41.1150    43.9690   245.7030 P.3          1 NAD401   0.0000
    25 O1N         42.0890    42.9270   245.2790 O.co2        1 NAD401   0.0000
    26 O2N         40.4760    43.8800   247.0690 O.co2        1 NAD401  -1.0000
    27 O5D         42.0210    45.2720   245.5780 O.3          1 NAD401   0.0000
    28 C5D         41.4520    46.5380   245.8560 C.3          1 NAD401   0.0000
    29 C4D         42.6290    47.4810   246.0270 C.3          1 NAD401   0.0000
    30 O4D         43.6450    46.8500   246.8030 O.3          1 NAD401   0.0000
    31 C3D         43.2940    47.8390   244.7150 C.3          1 NAD401   0.0000
    32 O3D         43.7020    49.1970   244.8080 O.3          1 NAD401   0.0000
    33 C2D         44.4480    46.8700   244.6660 C.3          1 NAD401   0.0000
    34 O2D         45.5070    47.3100   243.8330 O.3          1 NAD401   0.0000
    35 C1D         44.8610    46.8150   246.1540 C.3          1 NAD401   0.0000
    36 N1N         45.6470    45.6290   246.5690 N.ar         1 NAD401   1.0000
    37 C2N         45.2100    44.3630   246.2600 C.ar         1 NAD401   0.0000
    38 C3N         45.9770    43.2420   246.5870 C.ar         1 NAD401   0.0000
    39 C7N         45.6400    41.8170   246.1720 C.2          1 NAD401   0.0000
    40 O7N         46.6440    40.8460   246.1190 O.2          1 NAD401   0.0000
    41 N7N         44.4080    41.4160   245.9100 N.am         1 NAD401   0.0000
    42 C4N         47.1990    43.4750   247.2450 C.ar         1 NAD401   0.0000
    43 C5N         47.6380    44.7660   247.5550 C.ar         1 NAD401   0.0000
    44 C6N         46.8430    45.8540   247.1940 C.ar         1 NAD401   0.0000
    45 H5B1        36.8201    45.9542   244.1126 H            1 NAD401   0.0000
    46 H5B2        37.7485    46.8899   245.0765 H            1 NAD401   0.0000
    47 H4B         36.1858    46.0544   246.8746 H            1 NAD401   0.0000
    48 H3B         34.9888    44.9741   244.7058 H            1 NAD401   0.0000
    49 H5          33.4849    45.4723   246.9537 H            1 NAD401   0.0000
    50 H2B         34.0147    46.8913   244.0484 H            1 NAD401   0.0000
    51 H7          32.0573    46.4809   245.9256 H            1 NAD401   0.0000
    52 H1B         33.7341    47.8129   246.7344 H            1 NAD401   0.0000
    53 H8A         34.4807    48.9805   243.1570 H            1 NAD401   0.0000
    54 H6A1        32.6867    54.5220   244.9365 H            1 NAD401   0.0000
    55 H6A2        33.3705    53.5605   243.6684 H            1 NAD401   0.0000
    56 H2A         32.4652    51.7623   248.5448 H            1 NAD401   0.0000
    57 H5D1        40.9089    46.5008   246.6949 H            1 NAD401   0.0000
    58 H5D2        40.8729    46.8355   245.0969 H            1 NAD401   0.0000
    59 H4D         42.3256    48.3153   246.4873 H            1 NAD401   0.0000
    60 H3D         42.6720    47.7001   243.9444 H            1 NAD401   0.0000
    61 H17         44.1475    49.4703   243.9555 H            1 NAD401   0.0000
    62 H2D         44.1277    45.9713   244.3663 H            1 NAD401   0.0000
    63 H19         45.3587    46.9775   242.9016 H            1 NAD401   0.0000
    64 H1D         45.3752    47.6423   246.3803 H            1 NAD401   0.0000
    65 H2N         44.3326    44.2429   245.7956 H            1 NAD401   0.0000
    66 H7N1        44.2373    40.4682   245.6408 H            1 NAD401   0.0000
    67 H7N2        43.6467    42.0605   245.9810 H            1 NAD401   0.0000
    68 H4N         47.7703    42.6943   247.4984 H            1 NAD401   0.0000
    69 H5N         48.5078    44.9070   248.0278 H            1 NAD401   0.0000
    70 H6N         47.1438    46.7874   247.3898 H            1 NAD401   0.0000
@<TRIPOS>BOND
     1    1    2      ar
     2    1    3      ar
     3    1    4       1
     4    1   23       1
     5    4    5       1
     6    5    6       1
     7    6    7       1
     8    6    8       1
     9    7   12       1
    10    8    9       1
    11    8   10       1
    12   10   11       1
    13   10   12       1
    14   12   13       1
    15   13   14       1
    16   13   22       1
    17   14   15       2
    18   15   16       1
    19   16   17      ar
    20   16   22      ar
    21   17   18       1
    22   17   19      ar
    23   19   20      ar
    24   20   21      ar
    25   21   22      ar
    26   23   24       1
    27   24   25      ar
    28   24   26      ar
    29   24   27       1
    30   27   28       1
    31   28   29       1
    32   29   30       1
    33   29   31       1
    34   30   35       1
    35   31   32       1
    36   31   33       1
    37   33   34       1
    38   33   35       1
    39   35   36       1
    40   36   37      ar
    41   36   44      ar
    42   37   38      ar
    43   38   39       1
    44   38   42      ar
    45   39   40       2
    46   39   41      am
    47   42   43      ar
    48   43   44      ar
    49   44   70       1
    50    5   45       1
    51    5   46       1
    52    6   47       1
    53    8   48       1
    54    9   49       1
    55   10   50       1
    56   11   51       1
    57   12   52       1
    58   14   53       1
    59   18   54       1
    60   18   55       1
    61   20   56       1
    62   43   69       1
    63   28   57       1
    64   28   58       1
    65   29   59       1
    66   31   60       1
    67   32   61       1
    68   33   62       1
    69   34   63       1
    70   35   64       1
    71   37   65       1
    72   41   66       1
    73   41   67       1
    74   42   68       1
@<TRIPOS>SUBSTRUCTURE
     1 NAD401      1 GROUP             4 O     NAD     0 **** NAD O 401
