@<TRIPOS>MOLECULE
3rmw_UPG_1_ligand
   58    60     1     0     0
SMALL
NO_CHARGES


@<TRIPOS>ATOM
     1 N1          18.7700    19.4750     4.0090 N.pl3        1 UPG263   0.0000
     2 C2          18.0010    20.5290     3.5700 C.2          1 UPG263   0.0000
     3 N3          18.3020    21.1360     2.3660 N.pl3        1 UPG263   0.0000
     4 C4          19.3740    20.6730     1.6030 C.2          1 UPG263   0.0000
     5 C5          20.1580    19.5970     2.0430 C.2          1 UPG263   0.0000
     6 C6          19.8520    19.0020     3.2590 C.2          1 UPG263   0.0000
     7 O2          17.0460    20.9120     4.2500 O.2          1 UPG263   0.0000
     8 O4          19.6040    21.2190     0.5330 O.2          1 UPG263   0.0000
     9 C1C         18.4450    18.9040     5.3090 C.3          1 UPG263   0.0000
    10 C2C         17.3860    17.8450     5.2090 C.3          1 UPG263   0.0000
    11 O2C         16.7020    17.7960     6.4530 O.3          1 UPG263   0.0000
    12 C3C         18.2530    16.6040     5.0470 C.3          1 UPG263   0.0000
    13 C4C         19.3560    16.8940     6.0620 C.3          1 UPG263   0.0000
    14 O4C         19.6570    18.2960     5.8350 O.3          1 UPG263   0.0000
    15 O3C         17.5040    15.4280     5.3820 O.3          1 UPG263   0.0000
    16 C5C         20.6270    16.1430     5.6920 C.3          1 UPG263   0.0000
    17 O5C         20.7910    16.0770     4.2690 O.3          1 UPG263   0.0000
    18 PA          20.6410    14.6790     3.5440 P.3          1 UPG263   0.0000
    19 O1A         19.6100    13.7700     4.2220 O.co2        1 UPG263   0.0000
    20 O2A         20.5230    15.0220     2.1160 O.co2        1 UPG263  -1.0000
    21 O3A         22.1080    14.0160     3.7970 O.3          1 UPG263   0.0000
    22 PB          22.3160    12.3730     3.7960 P.3          1 UPG263   0.0000
    23 O1B         21.3670    11.8410     4.8600 O.co2        1 UPG263   0.0000
    24 O2B         22.1410    11.9200     2.4160 O.co2        1 UPG263  -1.0000
    25 O3B         23.8910    12.3320     4.1450 O.3          1 UPG263   0.0000
    26 C1'         24.5330    11.9500     5.4820 C.3          1 UPG263   0.0000
    27 C2'         23.7350    12.0310     6.7950 C.3          1 UPG263   0.0000
    28 C3'         23.0760    13.4020     6.9530 C.3          1 UPG263   0.0000
    29 C4'         24.1870    14.4490     7.1120 C.3          1 UPG263   0.0000
    30 C5'         25.5020    14.0610     6.4050 C.3          1 UPG263   0.0000
    31 C6'         26.4120    14.3710     7.5990 C.3          1 UPG263   0.0000
    32 O2'         22.8090    10.9530     6.8730 O.3          1 UPG263   0.0000
    33 O3'         22.2470    13.3880     8.1240 O.3          1 UPG263   0.0000
    34 O4'         23.7850    15.7570     6.6600 O.3          1 UPG263   0.0000
    35 O5'         25.7420    12.6990     5.8530 O.3          1 UPG263   0.0000
    36 O6'         27.6320    14.9670     7.1750 O.3          1 UPG263   0.0000
    37 H1          17.7523    21.9060     2.0421 H            1 UPG263   0.0000
    38 H2          20.9229    19.2647     1.4913 H            1 UPG263   0.0000
    39 H3          20.4024    18.2388     3.5974 H            1 UPG263   0.0000
    40 H1C         18.1379    19.6283     5.9263 H            1 UPG263   0.0000
    41 H2C         16.7692    17.9883     4.4351 H            1 UPG263   0.0000
    42 H6          15.9274    18.4281     6.4326 H            1 UPG263   0.0000
    43 H3C         18.6238    16.5426     4.1203 H            1 UPG263   0.0000
    44 H4C         19.0663    16.7135     7.0020 H            1 UPG263   0.0000
    45 H9          18.0839    14.6208     5.2717 H            1 UPG263   0.0000
    46 H5C1        20.5760    15.2140     6.0585 H            1 UPG263   0.0000
    47 H5C2        21.4133    16.6156     6.0899 H            1 UPG263   0.0000
    48 H1'         24.8168    10.9956     5.3896 H            1 UPG263   0.0000
    49 H2'         24.3847    11.9226     7.5474 H            1 UPG263   0.0000
    50 H3'         22.5235    13.6103     6.1460 H            1 UPG263   0.0000
    51 H4'         24.3869    14.5222     8.0891 H            1 UPG263   0.0000
    52 H5'         25.6844    14.7310     5.6854 H            1 UPG263   0.0000
    53 H6'1        26.6157    13.5202     8.0834 H            1 UPG263   0.0000
    54 H6'2        25.9385    15.0003     8.2153 H            1 UPG263   0.0000
    55 H19         22.1754    11.0013     6.1008 H            1 UPG263   0.0000
    56 H20         21.3241    13.0937     7.8756 H            1 UPG263   0.0000
    57 H21         24.0066    15.8572     5.6900 H            1 UPG263   0.0000
    58 H6'         28.1132    14.3410     6.5613 H            1 UPG263   0.0000
@<TRIPOS>BOND
     1    1    2       1
     2    1    6       1
     3    1    9       1
     4    2    3       1
     5    2    7       2
     6    3    4       1
     7    4    5       1
     8    4    8       2
     9    5    6       2
    10    9   10       1
    11    9   14       1
    12   10   11       1
    13   10   12       1
    14   12   13       1
    15   12   15       1
    16   13   14       1
    17   13   16       1
    18   16   17       1
    19   17   18       1
    20   18   19      ar
    21   18   20      ar
    22   18   21       1
    23   21   22       1
    24   22   23      ar
    25   22   24      ar
    26   22   25       1
    27   25   26       1
    28   26   27       1
    29   26   35       1
    30   27   28       1
    31   27   32       1
    32   28   29       1
    33   28   33       1
    34   29   30       1
    35   29   34       1
    36   30   31       1
    37   30   35       1
    38   31   36       1
    39    3   37       1
    40    5   38       1
    41    6   39       1
    42    9   40       1
    43   10   41       1
    44   11   42       1
    45   12   43       1
    46   13   44       1
    47   15   45       1
    48   16   46       1
    49   16   47       1
    50   36   58       1
    51   34   57       1
    52   26   48       1
    53   27   49       1
    54   28   50       1
    55   29   51       1
    56   30   52       1
    57   31   53       1
    58   31   54       1
    59   32   55       1
    60   33   56       1
@<TRIPOS>SUBSTRUCTURE
     1 UPG263      1 GROUP             4 A     UPG     0 **** UPG A 263
