@<TRIPOS>MOLECULE
3wio_H3M_1_ligand
   14    14     1     0     0
SMALL
NO_CHARGES


@<TRIPOS>ATOM
     1 O1         -30.8170    14.8480   -19.5680 O.2          1 H3M401   0.0000
     2 C1         -31.8300    14.4750   -20.1510 C.2          1 H3M401   0.0000
     3 C4         -32.1350    14.6360   -21.5690 C.2          1 H3M401   0.0000
     4 C5         -31.0980    14.9780   -22.5780 C.3          1 H3M401   0.0000
     5 C3         -33.4400    14.3460   -21.7620 C.2          1 H3M401   0.0000
     6 C2         -33.6060    13.2650   -20.7070 C.3          1 H3M401   0.0000
     7 O2         -32.9310    13.7220   -19.5410 O.3          1 H3M401   0.0000
     8 O3         -34.8720    12.6770   -20.4300 O.3          1 H3M401   0.0000
     9 H1         -31.5203    15.0394   -23.4824 H            1 H3M401   0.0000
    10 H2         -30.6822    15.8568   -22.3439 H            1 H3M401   0.0000
    11 H3         -30.3940    14.2678   -22.5863 H            1 H3M401   0.0000
    12 H4         -34.1008    14.7290   -22.4075 H            1 H3M401   0.0000
    13 H5         -33.0456    12.5057   -21.0379 H            1 H3M401   0.0000
    14 H6         -35.0040    11.8781   -21.0167 H            1 H3M401   0.0000
@<TRIPOS>BOND
     1    1    2       2
     2    2    3       1
     3    2    7       1
     4    3    4       1
     5    3    5       2
     6    5    6       1
     7    6    7       1
     8    6    8       1
     9    4    9       1
    10    4   10       1
    11    4   11       1
    12    5   12       1
    13    6   13       1
    14    8   14       1
@<TRIPOS>SUBSTRUCTURE
     1 H3M401      1 GROUP             4 A     H3M     0 **** H3M A 401
