@<TRIPOS>MOLECULE
5dcy_NAP_1_ligand
   73    77     1     0     0
SMALL
NO_CHARGES


@<TRIPOS>ATOM
     1 PA           0.6250    31.9650   -19.9020 P.3          1 NAP900   0.0000
     2 O1A         -0.7330    31.6130   -20.3950 O.co2        1 NAP900   0.0000
     3 O2A          1.0460    33.4100   -20.0110 O.co2        1 NAP900  -1.0000
     4 O5B          1.6730    31.1080   -20.6840 O.3          1 NAP900   0.0000
     5 C5B          1.5230    29.6790   -20.6750 C.3          1 NAP900   0.0000
     6 C4B          2.8010    29.0950   -21.1970 C.3          1 NAP900   0.0000
     7 O4B          2.7520    27.6550   -21.0610 O.3          1 NAP900   0.0000
     8 C3B          3.1030    29.3700   -22.6760 C.3          1 NAP900   0.0000
     9 O3B          4.4990    29.5130   -22.8810 O.3          1 NAP900   0.0000
    10 C2B          2.6310    28.0760   -23.3300 C.3          1 NAP900   0.0000
    11 O2B          3.2440    27.8950   -24.6210 O.3          1 NAP900   0.0000
    12 C1B          3.1210    27.0820   -22.3020 C.3          1 NAP900   0.0000
    13 N9A          2.5130    25.7690   -22.4300 N.pl3        1 NAP900   0.0000
    14 C8A          1.2010    25.4200   -22.2610 C.2          1 NAP900   0.0000
    15 N7A          0.9430    24.1600   -22.5230 N.2          1 NAP900   0.0000
    16 C5A          2.1770    23.6430   -22.8950 C.ar         1 NAP900   0.0000
    17 C6A          2.5860    22.3640   -23.3250 C.ar         1 NAP900   0.0000
    18 N6A          1.7600    21.3170   -23.4400 N.pl3        1 NAP900   0.0000
    19 N1A          3.8900    22.1930   -23.6450 N.ar         1 NAP900   0.0000
    20 C2A          4.7170    23.2400   -23.5490 C.ar         1 NAP900   0.0000
    21 N3A          4.4400    24.4880   -23.1730 N.ar         1 NAP900   0.0000
    22 C4A          3.1530    24.6240   -22.8460 C.ar         1 NAP900   0.0000
    23 O3           0.9310    31.4100   -18.4490 O.3          1 NAP900   0.0000
    24 PN           0.9240    32.1170   -17.0130 P.3          1 NAP900   0.0000
    25 O1N          2.2620    32.6540   -16.7220 O.co2        1 NAP900   0.0000
    26 O2N         -0.2530    33.0030   -16.9150 O.co2        1 NAP900  -1.0000
    27 O5D          0.6430    30.8130   -16.1460 O.3          1 NAP900   0.0000
    28 C5D          1.5830    30.1540   -15.2730 C.3          1 NAP900   0.0000
    29 C4D          0.9590    30.0980   -13.9000 C.3          1 NAP900   0.0000
    30 O4D          0.7970    31.4460   -13.4060 O.3          1 NAP900   0.0000
    31 C3D         -0.4420    29.4600   -13.8660 C.3          1 NAP900   0.0000
    32 O3D         -0.5810    28.6010   -12.7450 O.3          1 NAP900   0.0000
    33 C2D         -1.3620    30.6720   -13.7170 C.3          1 NAP900   0.0000
    34 O2D         -2.6170    30.4320   -13.0980 O.3          1 NAP900   0.0000
    35 C1D         -0.4690    31.5320   -12.8340 C.3          1 NAP900   0.0000
    36 N1N         -0.8520    33.0020   -12.7010 N.ar         1 NAP900   1.0000
    37 C2N         -1.0530    33.7340   -13.8120 C.ar         1 NAP900   0.0000
    38 C3N         -1.4830    35.0430   -13.7140 C.ar         1 NAP900   0.0000
    39 C7N         -1.7160    35.9340   -14.8980 C.2          1 NAP900   0.0000
    40 O7N         -2.2820    37.0350   -14.7410 O.2          1 NAP900   0.0000
    41 N7N         -1.4030    35.4800   -16.0980 N.am         1 NAP900   0.0000
    42 C4N         -1.6920    35.5780   -12.4480 C.ar         1 NAP900   0.0000
    43 C5N         -1.4490    34.8130   -11.3280 C.ar         1 NAP900   0.0000
    44 C6N         -1.0280    33.5240   -11.4690 C.ar         1 NAP900   0.0000
    45 P2B          2.3150    27.6030   -25.9080 P.3          1 NAP900   0.0000
    46 O1X          1.3180    28.6090   -26.0650 O.co2        1 NAP900   0.0000
    47 O2X          1.5890    26.3090   -25.4770 O.co2        1 NAP900  -1.0000
    48 O3X          3.2270    27.2110   -27.0490 O.co2        1 NAP900  -1.0000
    49 H5B1         0.7591    29.4111   -21.2621 H            1 NAP900   0.0000
    50 H5B2         1.3554    29.3581   -19.7428 H            1 NAP900   0.0000
    51 H4B          3.5597    29.4424   -20.6459 H            1 NAP900   0.0000
    52 H3B          2.5963    30.1623   -23.0158 H            1 NAP900   0.0000
    53 H5           4.6614    30.1354   -23.6467 H            1 NAP900   0.0000
    54 H2B          1.6338    28.0544   -23.4014 H            1 NAP900   0.0000
    55 H1B          4.1163    27.0015   -22.3557 H            1 NAP900   0.0000
    56 H8A          0.4999    26.0682   -21.9638 H            1 NAP900   0.0000
    57 H6A1         2.1120    20.4342   -23.7510 H            1 NAP900   0.0000
    58 H6A2         0.7909    21.4176   -23.2149 H            1 NAP900   0.0000
    59 H2A          5.6707    23.0624   -23.7919 H            1 NAP900   0.0000
    60 H5D1         2.4385    30.6707   -15.2391 H            1 NAP900   0.0000
    61 H5D2         1.7657    29.2281   -15.6037 H            1 NAP900   0.0000
    62 H4D          1.5645    29.5934   -13.2846 H            1 NAP900   0.0000
    63 H3D         -0.6319    28.9701   -14.7169 H            1 NAP900   0.0000
    64 H16          0.1024    27.8727   -12.7963 H            1 NAP900   0.0000
    65 H2D         -1.4953    31.1134   -14.6044 H            1 NAP900   0.0000
    66 H18         -2.9085    29.4945   -13.2880 H            1 NAP900   0.0000
    67 H1D         -0.4357    31.1261   -11.9207 H            1 NAP900   0.0000
    68 H2N         -0.8905    33.3289   -14.7117 H            1 NAP900   0.0000
    69 H7N1        -1.5486    36.0544   -16.9035 H            1 NAP900   0.0000
    70 H7N2        -1.0204    34.5619   -16.2011 H            1 NAP900   0.0000
    71 H4N         -2.0187    36.5180   -12.3502 H            1 NAP900   0.0000
    72 H5N         -1.5808    35.2015   -10.4160 H            1 NAP900   0.0000
    73 H6N         -0.8495    32.9651   -10.6592 H            1 NAP900   0.0000
@<TRIPOS>BOND
     1    1    2      ar
     2    1    3      ar
     3    1    4       1
     4    1   23       1
     5    4    5       1
     6    5    6       1
     7    6    7       1
     8    6    8       1
     9    7   12       1
    10    8    9       1
    11    8   10       1
    12   10   11       1
    13   10   12       1
    14   11   45       1
    15   12   13       1
    16   13   14       1
    17   13   22       1
    18   14   15       2
    19   15   16       1
    20   16   17      ar
    21   16   22      ar
    22   17   18       1
    23   17   19      ar
    24   19   20      ar
    25   20   21      ar
    26   21   22      ar
    27   23   24       1
    28   24   25      ar
    29   24   26      ar
    30   24   27       1
    31   27   28       1
    32   28   29       1
    33   29   30       1
    34   29   31       1
    35   30   35       1
    36   31   32       1
    37   31   33       1
    38   33   34       1
    39   33   35       1
    40   35   36       1
    41   36   37      ar
    42   36   44      ar
    43   37   38      ar
    44   38   39       1
    45   38   42      ar
    46   39   40       2
    47   39   41      am
    48   42   43      ar
    49   43   44      ar
    50   45   46      ar
    51   45   47      ar
    52   45   48      ar
    53   43   72       1
    54    5   49       1
    55    5   50       1
    56    6   51       1
    57    8   52       1
    58    9   53       1
    59   10   54       1
    60   12   55       1
    61   14   56       1
    62   18   57       1
    63   18   58       1
    64   20   59       1
    65   44   73       1
    66   28   60       1
    67   28   61       1
    68   29   62       1
    69   31   63       1
    70   32   64       1
    71   33   65       1
    72   34   66       1
    73   35   67       1
    74   37   68       1
    75   41   69       1
    76   41   70       1
    77   42   71       1
@<TRIPOS>SUBSTRUCTURE
     1 NAP900      1 GROUP             4 A     NAP     0 **** NAP A 900
