@<TRIPOS>MOLECULE
2yvj_NAI_2_ligand
   56    59     1     0     0
SMALL
NO_CHARGES


@<TRIPOS>ATOM
     1 PA          -2.9450   -17.8670    24.5440 P.3          1 NAI503   0.0000
     2 O1A         -2.3180   -16.5800    24.9190 O.co2        1 NAI503   0.0000
     3 O2A         -3.5960   -17.8710    23.1780 O.co2        1 NAI503  -1.0000
     4 O5B         -4.0180   -18.2410    25.6710 O.3          1 NAI503   0.0000
     5 C5B         -3.6720   -18.4510    27.0200 C.3          1 NAI503   0.0000
     6 C4B         -5.0060   -18.4800    27.7900 C.3          1 NAI503   0.0000
     7 O4B         -4.8240   -18.9520    29.1180 O.3          1 NAI503   0.0000
     8 C3B         -5.6710   -17.1060    27.9030 C.3          1 NAI503   0.0000
     9 O3B         -7.0580   -17.2510    27.6320 O.3          1 NAI503   0.0000
    10 C2B         -5.4350   -16.6950    29.3460 C.3          1 NAI503   0.0000
    11 O2B         -6.4270   -15.8280    29.8720 O.3          1 NAI503   0.0000
    12 C1B         -5.4250   -18.0330    30.0450 C.3          1 NAI503   0.0000
    13 N9A         -4.6090   -18.1140    31.2690 N.pl3        1 NAI503   0.0000
    14 C8A         -3.5480   -17.3160    31.6270 C.2          1 NAI503   0.0000
    15 N7A         -3.0860   -17.7470    32.8270 N.2          1 NAI503   0.0000
    16 C5A         -3.8490   -18.7820    33.2440 C.ar         1 NAI503   0.0000
    17 C6A         -3.7720   -19.6220    34.3550 C.ar         1 NAI503   0.0000
    18 N6A         -2.8730   -19.3590    35.2980 N.pl3        1 NAI503   0.0000
    19 N1A         -4.6770   -20.6660    34.4970 N.ar         1 NAI503   0.0000
    20 C2A         -5.7050   -20.8190    33.5750 C.ar         1 NAI503   0.0000
    21 N3A         -5.7560   -20.0040    32.4530 N.ar         1 NAI503   0.0000
    22 C4A         -4.8260   -19.0190    32.2760 C.ar         1 NAI503   0.0000
    23 O3          -1.7530   -18.9710    24.7280 O.3          1 NAI503   0.0000
    24 PN          -1.6530   -20.5170    24.2730 P.3          1 NAI503   0.0000
    25 O1N         -2.9920   -20.9730    23.8690 O.co2        1 NAI503   0.0000
    26 O2N         -0.8400   -21.1990    25.3510 O.co2        1 NAI503  -1.0000
    27 O5D         -0.7770   -20.4500    22.9070 O.3          1 NAI503   0.0000
    28 C5D          0.6350   -20.3700    22.9870 C.3          1 NAI503   0.0000
    29 C4D          1.2190   -19.8240    21.6910 C.3          1 NAI503   0.0000
    30 O4D          0.8870   -20.6550    20.5870 O.3          1 NAI503   0.0000
    31 C3D          0.6300   -18.4600    21.3870 C.3          1 NAI503   0.0000
    32 O3D          1.6470   -17.6230    20.9000 O.3          1 NAI503   0.0000
    33 C2D         -0.3760   -18.7590    20.2900 C.3          1 NAI503   0.0000
    34 O2D         -0.5960   -17.6450    19.4490 O.3          1 NAI503   0.0000
    35 C1D          0.2360   -19.9530    19.5580 C.3          1 NAI503   0.0000
    36 H5B1        -3.0934   -17.7060    27.3520 H            1 NAI503   0.0000
    37 H5B2        -3.1892   -19.3204    27.1253 H            1 NAI503   0.0000
    38 H4B         -5.6330   -19.0984    27.3162 H            1 NAI503   0.0000
    39 H3B         -5.2506   -16.4532    27.2728 H            1 NAI503   0.0000
    40 H5          -7.5463   -17.4391    28.4842 H            1 NAI503   0.0000
    41 H2B         -4.5357   -16.2659    29.4299 H            1 NAI503   0.0000
    42 H7          -7.1563   -16.3702    30.2892 H            1 NAI503   0.0000
    43 H1B         -6.3627   -18.3178    30.2440 H            1 NAI503   0.0000
    44 H8A         -3.1815   -16.5521    31.0959 H            1 NAI503   0.0000
    45 H6A1        -2.8035   -19.9503    36.1014 H            1 NAI503   0.0000
    46 H6A2        -2.2661   -18.5698    35.2040 H            1 NAI503   0.0000
    47 H2A         -6.4075   -21.5158    33.7198 H            1 NAI503   0.0000
    48 H5D1         1.0063   -21.2832    23.1550 H            1 NAI503   0.0000
    49 H5D2         0.8870   -19.7638    23.7413 H            1 NAI503   0.0000
    50 H4D          2.2131   -19.7520    21.7725 H            1 NAI503   0.0000
    51 H3D          0.1865   -18.0658    22.1920 H            1 NAI503   0.0000
    52 H17          1.2672   -16.7205    20.6967 H            1 NAI503   0.0000
    53 H2D         -1.2431   -19.0355    20.7044 H            1 NAI503   0.0000
    54 H19          0.0516   -17.6693    18.6874 H            1 NAI503   0.0000
    55 H1D1        -0.4728   -20.5152    19.1320 H            1 NAI503   0.0000
    56 H1D2         0.8866   -19.6521    18.8608 H            1 NAI503   0.0000
@<TRIPOS>BOND
     1    1    2      ar
     2    1    3      ar
     3    1    4       1
     4    1   23       1
     5    4    5       1
     6    5    6       1
     7    6    7       1
     8    6    8       1
     9    7   12       1
    10    8    9       1
    11    8   10       1
    12   10   11       1
    13   10   12       1
    14   12   13       1
    15   13   14       1
    16   13   22       1
    17   14   15       2
    18   15   16       1
    19   16   17      ar
    20   16   22      ar
    21   17   18       1
    22   17   19      ar
    23   19   20      ar
    24   20   21      ar
    25   21   22      ar
    26   23   24       1
    27   24   25      ar
    28   24   26      ar
    29   24   27       1
    30   27   28       1
    31   28   29       1
    32   29   30       1
    33   29   31       1
    34   30   35       1
    35   31   32       1
    36   31   33       1
    37   33   34       1
    38   33   35       1
    39   35   56       1
    40    5   36       1
    41    5   37       1
    42    6   38       1
    43    8   39       1
    44    9   40       1
    45   10   41       1
    46   11   42       1
    47   12   43       1
    48   14   44       1
    49   18   45       1
    50   18   46       1
    51   20   47       1
    52   35   55       1
    53   28   48       1
    54   28   49       1
    55   29   50       1
    56   31   51       1
    57   32   52       1
    58   33   53       1
    59   34   54       1
@<TRIPOS>SUBSTRUCTURE
     1 NAI503      1 GROUP             4 A     NAI     0 **** NAI A 503
