@<TRIPOS>MOLECULE
3att_ATP_1_ligand
   43    45     1     0     0
SMALL
NO_CHARGES


@<TRIPOS>ATOM
     1 PG           4.5640    34.2230    69.6660 P.3          1 ATP510   0.0000
     2 O1G          5.3070    33.7840    68.3550 O.co2        1 ATP510   0.0000
     3 O2G          5.4440    34.9230    70.6950 O.co2        1 ATP510  -1.0000
     4 O3G          3.1420    34.7700    69.5160 O.co2        1 ATP510  -1.0000
     5 PB           3.3410    31.9800    71.0900 P.3          1 ATP510   0.0000
     6 O1B          1.8740    32.0840    71.2860 O.co2        1 ATP510   0.0000
     7 O2B          3.4170    30.7530    70.2140 O.co2        1 ATP510  -1.0000
     8 O3B          4.3050    32.6720    70.0640 O.3          1 ATP510   0.0000
     9 PA           5.5990    31.2100    72.7390 P.3          1 ATP510   0.0000
    10 O1A          5.6840    29.7050    72.9970 O.co2        1 ATP510   0.0000
    11 O2A          6.6080    31.9260    71.8480 O.co2        1 ATP510  -1.0000
    12 O3A          4.0860    31.6080    72.4480 O.3          1 ATP510   0.0000
    13 O5'          5.6890    31.9160    74.1730 O.3          1 ATP510   0.0000
    14 C5'          5.2270    33.2630    74.2680 C.3          1 ATP510   0.0000
    15 C4'          5.9470    33.9980    75.3920 C.3          1 ATP510   0.0000
    16 O4'          5.2790    33.4990    76.5660 O.3          1 ATP510   0.0000
    17 C3'          7.3800    33.5810    75.6080 C.3          1 ATP510   0.0000
    18 O3'          8.2990    34.4760    75.0180 O.3          1 ATP510   0.0000
    19 C2'          7.5240    33.6530    77.1380 C.3          1 ATP510   0.0000
    20 O2'          7.7290    34.9820    77.6050 O.3          1 ATP510   0.0000
    21 C1'          6.1600    33.2710    77.6470 C.3          1 ATP510   0.0000
    22 N9           6.2350    31.7910    77.8930 N.pl3        1 ATP510   0.0000
    23 C8           5.7930    30.8180    77.0700 C.2          1 ATP510   0.0000
    24 N7           6.0260    29.5890    77.6040 N.2          1 ATP510   0.0000
    25 C5           6.6290    29.7660    78.8100 C.ar         1 ATP510   0.0000
    26 C6           7.1430    28.9180    79.9060 C.ar         1 ATP510   0.0000
    27 N6           7.0510    27.5540    79.9260 N.pl3        1 ATP510   0.0000
    28 N1           7.6940    29.5610    80.9610 N.ar         1 ATP510   0.0000
    29 C2           7.8030    30.9050    81.0820 C.ar         1 ATP510   0.0000
    30 N3           7.3330    31.7280    80.1210 N.ar         1 ATP510   0.0000
    31 C4           6.7650    31.2310    78.9850 C.ar         1 ATP510   0.0000
    32 H5'1         4.2442    33.2613    74.4529 H            1 ATP510   0.0000
    33 H5'2         5.4025    33.7326    73.4027 H            1 ATP510   0.0000
    34 H4'          5.8569    34.9902    75.3057 H            1 ATP510   0.0000
    35 H3'          7.5319    32.6485    75.2803 H            1 ATP510   0.0000
    36 H5           8.4907    34.1868    74.0801 H            1 ATP510   0.0000
    37 H2'          8.2313    33.0303    77.4726 H            1 ATP510   0.0000
    38 H7           6.9501    35.5515    77.3422 H            1 ATP510   0.0000
    39 H1'          5.9005    33.7823    78.4663 H            1 ATP510   0.0000
    40 H9           5.3533    30.9786    76.1863 H            1 ATP510   0.0000
    41 H10          7.4202    27.0393    80.6998 H            1 ATP510   0.0000
    42 H11          6.6145    27.0711    79.1669 H            1 ATP510   0.0000
    43 H12          8.2377    31.2933    81.8945 H            1 ATP510   0.0000
@<TRIPOS>BOND
     1    1    2      ar
     2    1    3      ar
     3    1    4      ar
     4    1    8       1
     5    5    6      ar
     6    5    7      ar
     7    5    8       1
     8    5   12       1
     9    9   10      ar
    10    9   11      ar
    11    9   12       1
    12    9   13       1
    13   13   14       1
    14   14   15       1
    15   15   16       1
    16   15   17       1
    17   16   21       1
    18   17   18       1
    19   17   19       1
    20   19   20       1
    21   19   21       1
    22   21   22       1
    23   22   23       1
    24   22   31       1
    25   23   24       2
    26   24   25       1
    27   25   26      ar
    28   25   31      ar
    29   26   27       1
    30   26   28      ar
    31   28   29      ar
    32   29   30      ar
    33   30   31      ar
    34   29   43       1
    35   27   42       1
    36   27   41       1
    37   23   40       1
    38   14   32       1
    39   14   33       1
    40   15   34       1
    41   17   35       1
    42   18   36       1
    43   19   37       1
    44   20   38       1
    45   21   39       1
@<TRIPOS>SUBSTRUCTURE
     1 ATP510      1 GROUP             4 A     ATP     0 **** ATP A 510
