@<TRIPOS>MOLECULE
2a7r_5GP_3_ligand
   36    38     1     0     0
SMALL
NO_CHARGES


@<TRIPOS>ATOM
     1 P           50.5890    25.6570    29.4130 P.3          1 5GP500   0.0000
     2 O1P         49.6540    26.4020    28.5410 O.co2        1 5GP500   0.0000
     3 O2P         51.0270    24.2470    28.7740 O.co2        1 5GP500  -1.0000
     4 O3P         49.9350    25.3130    30.8430 O.co2        1 5GP500  -1.0000
     5 O5'         51.9530    26.4480    29.7300 O.3          1 5GP500   0.0000
     6 C5'         52.7850    26.9240    28.6690 C.3          1 5GP500   0.0000
     7 C4'         54.1460    27.3440    29.2270 C.3          1 5GP500   0.0000
     8 O4'         54.8660    26.2310    29.7760 O.3          1 5GP500   0.0000
     9 C3'         55.1200    27.8280    28.1550 C.3          1 5GP500   0.0000
    10 O3'         54.7510    29.1390    27.7140 O.3          1 5GP500   0.0000
    11 C2'         56.3780    27.9050    29.0200 C.3          1 5GP500   0.0000
    12 O2'         56.3880    29.1180    29.7800 O.3          1 5GP500   0.0000
    13 C1'         56.2090    26.7130    29.9680 C.3          1 5GP500   0.0000
    14 N9          57.1680    25.6220    29.6800 N.pl3        1 5GP500   0.0000
    15 C8          57.2230    24.8900    28.5690 C.2          1 5GP500   0.0000
    16 N7          58.1930    23.9860    28.6800 N.2          1 5GP500   0.0000
    17 C5          58.7640    24.1390    29.8700 C.2          1 5GP500   0.0000
    18 C6          59.8030    23.4790    30.5190 C.2          1 5GP500   0.0000
    19 O6          60.3800    22.5380    29.9820 O.2          1 5GP500   0.0000
    20 N1          60.1650    23.8950    31.8080 N.2          1 5GP500   0.0000
    21 C2          59.4730    24.9570    32.4030 C.2          1 5GP500   0.0000
    22 N2          59.8020    25.3610    33.6260 N.pl3        1 5GP500   0.0000
    23 N3          58.4740    25.5690    31.7430 N.pl3        1 5GP500   0.0000
    24 C4          58.1130    25.1870    30.5120 C.2          1 5GP500   0.0000
    25 H5'1        52.3484    27.7103    28.2318 H            1 5GP500   0.0000
    26 H5'2        52.9126    26.1963    27.9951 H            1 5GP500   0.0000
    27 H4'         54.0262    28.0509    29.9241 H            1 5GP500   0.0000
    28 H3'         55.2125    27.1800    27.3990 H            1 5GP500   0.0000
    29 H5          55.2121    29.8229    28.2793 H            1 5GP500   0.0000
    30 H2'         57.2061    27.8154    28.4667 H            1 5GP500   0.0000
    31 H7          56.8775    28.9690    30.6392 H            1 5GP500   0.0000
    32 H1'         56.3232    27.0183    30.9134 H            1 5GP500   0.0000
    33 H9          56.6271    25.0024    27.7738 H            1 5GP500   0.0000
    34 H10         59.3084    26.1193    34.0518 H            1 5GP500   0.0000
    35 H11         60.5431    24.9066    34.1202 H            1 5GP500   0.0000
    36 H12         57.9901    26.3263    32.1816 H            1 5GP500   0.0000
@<TRIPOS>BOND
     1    1    2      ar
     2    1    3      ar
     3    1    4      ar
     4    1    5       1
     5    5    6       1
     6    6    7       1
     7    7    8       1
     8    7    9       1
     9    8   13       1
    10    9   10       1
    11    9   11       1
    12   11   12       1
    13   11   13       1
    14   13   14       1
    15   14   15       1
    16   14   24       1
    17   15   16       2
    18   16   17       1
    19   17   18       1
    20   17   24       2
    21   18   19       2
    22   18   20       1
    23   20   21       2
    24   21   22       1
    25   21   23       1
    26   23   24       1
    27   22   35       1
    28   22   34       1
    29    6   25       1
    30    6   26       1
    31    7   27       1
    32    9   28       1
    33   10   29       1
    34   11   30       1
    35   12   31       1
    36   13   32       1
    37   15   33       1
    38   23   36       1
@<TRIPOS>SUBSTRUCTURE
     1 5GP500      1 GROUP             4 C     5GP     0 **** 5GP C 500
