@<TRIPOS>MOLECULE
./coach420/1p5r/ligand.pdb
 48 50 0 0 0
SMALL
GASTEIGER

@<TRIPOS>ATOM
      1  N1A      -47.3210   13.9520   31.9180 N.ar  501  COA501     -0.2040
      2  C2A      -46.6100   12.8650   32.4270 C.ar  501  COA501      0.2016
      3  N3A      -45.5190   12.3250   31.8850 N.ar  501  COA501     -0.2048
      4  C4A      -45.1220   12.9400   30.7270 C.ar  501  COA501      0.1692
      5  C5A      -45.7280   14.0280   30.1100 C.ar  501  COA501      0.1518
      6  C6A      -46.9020   14.5650   30.7410 C.ar  501  COA501      0.1919
      7  N6A      -47.5820   15.5830   30.2750 N.pl3 501  COA501     -0.1054
      8  N7A      -45.0750   14.3800   28.9850 N.ar  501  COA501     -0.2193
      9  C8A      -44.0720   13.5270   28.9030 C.ar  501  COA501      0.1816
     10  N9A      -44.0330   12.6220   29.9230 N.ar  501  COA501     -0.2693
     11  C1B      -43.0690   11.5240   30.1460 C.3   501  COA501      0.2408
     12  C2B      -42.7520   10.7570   28.8790 C.3   501  COA501      0.2310
     13  O2B      -43.8760    9.9910   28.4190 O.3   501  COA501     -0.2156
     14  C3B      -41.5600    9.9330   29.3420 C.3   501  COA501      0.1904
     15  O3B      -41.9680    8.7670   30.0260 O.3   501  COA501     -0.2674
     16  P3B      -41.1470    7.4240   30.1160 P.3   501  COA501      0.5327
     17  O7A      -40.7340    7.0370   28.7360 O.2   501  COA501     -0.2224
     18  O8A      -42.0650    6.4610   30.7360 O.3   501  COA501     -0.1145
     19  O9A      -39.8450    7.8080   30.9430 O.3   501  COA501     -0.1145
     20  C4B      -40.7880   10.9020   30.2400 C.3   501  COA501      0.1775
     21  O4B      -41.7890   11.9060   30.6240 O.3   501  COA501     -0.3307
     22  C5B      -39.5920   11.5970   29.5670 C.3   501  COA501      0.1812
     23  O5B      -40.0720   12.1120   28.3360 O.3   501  COA501     -0.3112
     24  P1A      -39.1980   12.4280   27.0370 P.3   501  COA501      0.2189
     25  O1A      -40.0360   12.9470   25.9760 O.2   501  COA501     -0.5170
     26  O2A      -38.4410   11.2290   26.5340 O.3   501  COA501     -0.4371
     27  O3A      -38.1520   13.5610   27.5260 O.3   501  COA501     -0.2703
     28  P2A      -36.5730   13.7120   27.3300 P.3   501  COA501      0.2188
     29  O4A      -35.8590   12.4670   27.6640 O.2   501  COA501     -0.5170
     30  O5A      -36.0790   14.8900   28.0500 O.3   501  COA501     -0.4371
     31  O6A      -36.4620   13.8780   25.8730 O.3   501  COA501     -0.3138
     32  CBP      -35.8930   14.1300   23.7570 C.3   501  COA501      0.0645
     33  CCP      -35.3070   13.6060   25.0890 C.3   501  COA501      0.1519
     34  CDP      -34.9040   14.1350   22.5620 C.3   501  COA501      0.0056
     35  CEP      -36.4280   15.5720   23.9620 C.3   501  COA501      0.0056
     36  CAP      -37.1350   13.1410   23.4410 C.3   501  COA501      0.2312
     37  OAP      -38.4000   13.8010   23.2600 O.3   501  COA501     -0.2131
     38  C9P      -36.9520   12.2300   22.1730 C.2   501  COA501      0.2719
     39  O9P      -35.9630   11.3240   22.1130 O.2   501  COA501     -0.2706
     40  N8P      -37.8270   12.6230   21.2870 N.am  501  COA501     -0.2028
     41  C7P      -38.0090   12.2020   19.8560 C.3   501  COA501      0.1248
     42  C6P      -37.0110   13.2550   19.4450 C.3   501  COA501      0.1102
     43  C5P      -37.2880   14.2520   18.3920 C.2   501  COA501      0.2432
     44  O5P      -38.3640   14.3070   17.7620 O.2   501  COA501     -0.2733
     45  N4P      -36.2740   15.1100   18.3270 N.am  501  COA501     -0.2044
     46  C3P      -36.3760   16.2840   17.4290 C.3   501  COA501      0.1276
     47  C2P      -36.6610   17.3500   18.5020 C.3   501  COA501      0.0920
     48  S1P      -37.3680   18.7910   17.8260 S.3   501  COA501     -0.0802
@<TRIPOS>BOND
     1     1     6   ar
     2     1     2   ar
     3     2     3   ar
     4     3     4   ar
     5     4    10   ar
     6     4     5   ar
     7     5     8   ar
     8     5     6   ar
     9     6     7    1
    10     8     9   ar
    11     9    10   ar
    12    10    11    1
    13    11    12    1
    14    11    21    1
    15    12    13    1
    16    12    14    1
    17    14    15    1
    18    14    20    1
    19    15    16    1
    20    16    17    2
    21    16    18    1
    22    16    19    1
    23    20    22    1
    24    20    21    1
    25    22    23    1
    26    23    24    1
    27    24    25    2
    28    24    26    1
    29    24    27    1
    30    27    28    1
    31    28    31    1
    32    28    29    2
    33    28    30    1
    34    31    33    1
    35    32    34    1
    36    32    36    1
    37    32    35    1
    38    32    33    1
    39    36    38    1
    40    36    37    1
    41    38    40   am
    42    38    39    2
    43    40    41    1
    44    41    42    1
    45    42    43    1
    46    43    44    2
    47    43    45   am
    48    45    46    1
    49    46    47    1
    50    47    48    1
