@<TRIPOS>MOLECULE
2xcl_ANP_1_ligand
   44    46     1     0     0
SMALL
NO_CHARGES


@<TRIPOS>ATOM
     1 PG          15.4390    43.3150    36.5700 P.3          1 ANP450   0.0000
     2 O1G         15.7850    44.6590    37.0640 O.co2        1 ANP450   0.0000
     3 O2G         16.5670    42.4080    36.2840 O.co2        1 ANP450  -1.0000
     4 O3G         14.4120    42.6750    37.4860 O.co2        1 ANP450  -1.0000
     5 PB          14.0170    42.2300    34.3290 P.3          1 ANP450   0.0000
     6 O1B         14.9490    41.7370    33.2490 O.co2        1 ANP450   0.0000
     7 O2B         13.5290    41.2610    35.3600 O.co2        1 ANP450  -1.0000
     8 N3B         14.7540    43.4780    35.0880 N.3          1 ANP450   0.0000
     9 PA          11.8190    44.2580    33.8010 P.3          1 ANP450   0.0000
    10 O1A         11.0300    44.1190    35.0440 O.co2        1 ANP450   0.0000
    11 O2A         12.6140    45.5140    33.6030 O.co2        1 ANP450  -1.0000
    12 O3A         12.7590    42.9370    33.6200 O.3          1 ANP450   0.0000
    13 O5'         10.8120    44.1250    32.6090 O.3          1 ANP450   0.0000
    14 C5'         11.5620    43.9860    31.4240 C.3          1 ANP450   0.0000
    15 C4'         10.8400    43.0270    30.5570 C.3          1 ANP450   0.0000
    16 O4'          9.8330    43.9140    29.9560 O.3          1 ANP450   0.0000
    17 C3'         11.6800    42.5640    29.4040 C.3          1 ANP450   0.0000
    18 O3'         11.1150    41.3420    28.8800 O.3          1 ANP450   0.0000
    19 C2'         11.6560    43.7490    28.5190 C.3          1 ANP450   0.0000
    20 O2'         12.0670    43.4100    27.2270 O.3          1 ANP450   0.0000
    21 C1'         10.2050    44.2560    28.6010 C.3          1 ANP450   0.0000
    22 N9          10.1780    45.7210    28.3550 N.pl3        1 ANP450   0.0000
    23 C8          10.4230    46.7610    29.2220 C.2          1 ANP450   0.0000
    24 N7          10.3290    47.9470    28.6850 N.2          1 ANP450   0.0000
    25 C5           9.9970    47.6670    27.3770 C.ar         1 ANP450   0.0000
    26 C6           9.7430    48.4990    26.2310 C.ar         1 ANP450   0.0000
    27 N6           9.8110    49.8200    26.3020 N.pl3        1 ANP450   0.0000
    28 N1           9.4300    47.9010    25.0500 N.ar         1 ANP450   0.0000
    29 C2           9.3730    46.5710    24.9830 C.ar         1 ANP450   0.0000
    30 N3           9.5920    45.6910    25.9610 N.ar         1 ANP450   0.0000
    31 C4           9.9030    46.3180    27.1590 C.ar         1 ANP450   0.0000
    32 H3B         15.4821    43.7866    34.4760 H            1 ANP450   0.0000
    33 H5'1        12.4747    43.6363    31.6355 H            1 ANP450   0.0000
    34 H5'2        11.6422    44.8702    30.9639 H            1 ANP450   0.0000
    35 H4'         10.4340    42.2704    31.0696 H            1 ANP450   0.0000
    36 H3'         12.6152    42.3957    29.7154 H            1 ANP450   0.0000
    37 H6          10.8618    41.4758    27.9219 H            1 ANP450   0.0000
    38 H2'         12.2699    44.4472    28.8871 H            1 ANP450   0.0000
    39 H8          13.0579    43.5216    27.1524 H            1 ANP450   0.0000
    40 H1'          9.6248    43.7760    27.9430 H            1 ANP450   0.0000
    41 H10         10.6541    46.6198    30.1846 H            1 ANP450   0.0000
    42 H11          9.6296    50.3744    25.4897 H            1 ANP450   0.0000
    43 H12         10.0437    50.2629    27.1679 H            1 ANP450   0.0000
    44 H13          9.1373    46.1861    24.0907 H            1 ANP450   0.0000
@<TRIPOS>BOND
     1    1    2      ar
     2    1    3      ar
     3    1    4      ar
     4    1    8       1
     5    5    6      ar
     6    5    7      ar
     7    5    8       1
     8    5   12       1
     9    9   10      ar
    10    9   11      ar
    11    9   12       1
    12    9   13       1
    13   13   14       1
    14   14   15       1
    15   15   16       1
    16   15   17       1
    17   16   21       1
    18   17   18       1
    19   17   19       1
    20   19   20       1
    21   19   21       1
    22   21   22       1
    23   22   23       1
    24   22   31       1
    25   23   24       2
    26   24   25       1
    27   25   26      ar
    28   25   31      ar
    29   26   27       1
    30   26   28      ar
    31   28   29      ar
    32   29   30      ar
    33   30   31      ar
    34   29   44       1
    35   27   43       1
    36   27   42       1
    37    8   32       1
    38   23   41       1
    39   14   33       1
    40   14   34       1
    41   15   35       1
    42   17   36       1
    43   18   37       1
    44   19   38       1
    45   20   39       1
    46   21   40       1
@<TRIPOS>SUBSTRUCTURE
     1 ANP450      1 GROUP             4 A     ANP     0 **** ANP A 450
