@<TRIPOS>MOLECULE
3rha_FDA_1_ligand
   86    91     1     0     0
SMALL
NO_CHARGES


@<TRIPOS>ATOM
     1 PA          17.7100     4.2870   -31.5780 P.3          1 FDA483   0.0000
     2 O1A         16.9860     3.1750   -32.5480 O.co2        1 FDA483   0.0000
     3 O2A         17.7450     3.8520   -30.1870 O.co2        1 FDA483  -1.0000
     4 O5B         16.8820     5.7290   -31.6380 O.3          1 FDA483   0.0000
     5 C5B         16.3890     6.1520   -32.9000 C.3          1 FDA483   0.0000
     6 C4B         15.0540     6.8870   -32.7520 C.3          1 FDA483   0.0000
     7 O4B         14.5200     7.5900   -33.9020 O.3          1 FDA483   0.0000
     8 C3B         13.8120     6.1020   -32.1350 C.3          1 FDA483   0.0000
     9 O3B         13.3490     6.5410   -30.8800 O.3          1 FDA483   0.0000
    10 C2B         12.8050     6.0380   -33.2980 C.3          1 FDA483   0.0000
    11 O2B         11.4510     5.8430   -32.9710 O.3          1 FDA483   0.0000
    12 C1B         13.1470     7.3100   -33.9850 C.3          1 FDA483   0.0000
    13 N9A         12.8420     7.3820   -35.4120 N.pl3        1 FDA483   0.0000
    14 C8A         13.2190     6.5640   -36.4290 C.2          1 FDA483   0.0000
    15 N7A         12.7590     7.1710   -37.6320 N.2          1 FDA483   0.0000
    16 C5A         12.0930     8.3940   -37.2900 C.ar         1 FDA483   0.0000
    17 C6A         11.4390     9.3920   -38.0620 C.ar         1 FDA483   0.0000
    18 N6A         11.3930     9.2840   -39.5030 N.pl3        1 FDA483   0.0000
    19 N1A         10.8960    10.4570   -37.4520 N.ar         1 FDA483   0.0000
    20 C2A         10.9490    10.5980   -36.0920 C.ar         1 FDA483   0.0000
    21 N3A         11.5860     9.6180   -35.3170 N.ar         1 FDA483   0.0000
    22 C4A         12.1430     8.5440   -35.9490 C.ar         1 FDA483   0.0000
    23 N1          23.0910    -1.6870   -26.2700 N.2          1 FDA483   0.0000
    24 C2          23.8960    -1.6740   -25.1110 C.2          1 FDA483   0.0000
    25 O2          24.8330    -0.6470   -24.9260 O.2          1 FDA483   0.0000
    26 N3          23.7650    -2.6690   -24.1650 N.pl3        1 FDA483   0.0000
    27 C4          22.8540    -3.6910   -24.3550 C.2          1 FDA483   0.0000
    28 O4          22.7110    -4.6820   -23.3960 O.2          1 FDA483   0.0000
    29 C4X         22.0250    -3.7270   -25.5730 C.2          1 FDA483   0.0000
    30 N5          21.1160    -4.7660   -25.7270 N.2          1 FDA483   0.0000
    31 C5X         19.9970    -4.5990   -26.5980 C.2          1 FDA483   0.0000
    32 C6          18.7750    -5.4820   -26.5830 C.3          1 FDA483   0.0000
    33 C7          17.8180    -5.4720   -27.8260 C.3          1 FDA483   0.0000
    34 C7M         16.4670    -6.1260   -27.5860 C.3          1 FDA483   0.0000
    35 C8          17.8370    -4.1780   -28.7780 C.3          1 FDA483   0.0000
    36 C8M         16.4610    -3.5740   -29.0990 C.3          1 FDA483   0.0000
    37 C9          18.9200    -3.0820   -28.4680 C.3          1 FDA483   0.0000
    38 C9A         20.0720    -3.4160   -27.5210 C.2          1 FDA483   0.0000
    39 N10         21.3570    -2.7890   -27.6240 N.pl3        1 FDA483   0.0000
    40 C10         22.1630    -2.7630   -26.4720 C.2          1 FDA483   0.0000
    41 C1'         21.5930    -1.7590   -28.6700 C.3          1 FDA483   0.0000
    42 C2'         21.0560    -0.3370   -28.3260 C.2          1 FDA483   0.0000
    43 O2'         20.2120    -0.1810   -27.5140 O.2          1 FDA483   0.0000
    44 C3'         21.2590     0.7480   -29.4160 C.3          1 FDA483   0.0000
    45 O3'         22.5430     0.6960   -29.9750 O.3          1 FDA483   0.0000
    46 C4'         20.8260     2.1780   -28.9910 C.3          1 FDA483   0.0000
    47 O4'         19.5780     2.2790   -28.3620 O.3          1 FDA483   0.0000
    48 C5'         20.8580     3.0690   -30.2300 C.3          1 FDA483   0.0000
    49 O5'         20.7100     4.4360   -29.9540 O.3          1 FDA483   0.0000
    50 P           20.3510     5.3760   -31.2670 P.3          1 FDA483   0.0000
    51 O1P         19.8070     6.8060   -30.6770 O.co2        1 FDA483   0.0000
    52 O2P         21.5770     5.4880   -32.0460 O.co2        1 FDA483  -1.0000
    53 O3P         19.2310     4.5780   -32.1750 O.3          1 FDA483   0.0000
    54 H5B1        16.2579     5.3513   -33.4845 H            1 FDA483   0.0000
    55 H5B2        17.0554     6.7670   -33.3216 H            1 FDA483   0.0000
    56 H4B         15.2432     7.6099   -32.0875 H            1 FDA483   0.0000
    57 H3B         14.1261     5.1629   -31.9955 H            1 FDA483   0.0000
    58 H5          13.0614     7.4964   -30.9464 H            1 FDA483   0.0000
    59 H2B         13.0825     5.2869   -33.8970 H            1 FDA483   0.0000
    60 H7          11.1372     6.5934   -32.3892 H            1 FDA483   0.0000
    61 H1B         12.6537     8.0496   -33.5270 H            1 FDA483   0.0000
    62 H8A         13.7216     5.7033   -36.3484 H            1 FDA483   0.0000
    63 H6A1        10.9319     9.9883   -40.0427 H            1 FDA483   0.0000
    64 H6A2        11.8223     8.5050   -39.9600 H            1 FDA483   0.0000
    65 H2A         10.5356    11.3957   -35.6530 H            1 FDA483   0.0000
    66 H13         24.3301    -2.6510   -23.3402 H            1 FDA483   0.0000
    67 H14         18.2286    -5.2137   -25.7896 H            1 FDA483   0.0000
    68 H15         19.0938    -6.4225   -26.4655 H            1 FDA483   0.0000
    69 H16         18.2587    -6.1503   -28.4140 H            1 FDA483   0.0000
    70 H7M1        15.9203    -6.0781   -28.4220 H            1 FDA483   0.0000
    71 H7M2        16.6009    -7.0833   -27.3296 H            1 FDA483   0.0000
    72 H7M3        15.9910    -5.6469   -26.8485 H            1 FDA483   0.0000
    73 H20         18.1337    -4.5480   -29.6584 H            1 FDA483   0.0000
    74 H8M1        16.5767    -2.7784   -29.6936 H            1 FDA483   0.0000
    75 H8M2        15.8969    -4.2573   -29.5625 H            1 FDA483   0.0000
    76 H8M3        16.0139    -3.2932   -28.2497 H            1 FDA483   0.0000
    77 H24         18.4381    -2.2982   -28.0762 H            1 FDA483   0.0000
    78 H25         19.3279    -2.8194   -29.3424 H            1 FDA483   0.0000
    79 H1'1        21.1474    -2.0638   -29.5118 H            1 FDA483   0.0000
    80 H1'2        22.5792    -1.6902   -28.8209 H            1 FDA483   0.0000
    81 H3'         20.6384     0.4948   -30.1581 H            1 FDA483   0.0000
    82 H29         23.2248     0.8419   -29.2582 H            1 FDA483   0.0000
    83 H4'         21.5139     2.5241   -28.3530 H            1 FDA483   0.0000
    84 H31         18.9819     2.8767   -28.8981 H            1 FDA483   0.0000
    85 H5'1        20.1151     2.7888   -30.8380 H            1 FDA483   0.0000
    86 H5'2        21.7350     2.9346   -30.6913 H            1 FDA483   0.0000
@<TRIPOS>BOND
     1    1    2      ar
     2    1    3      ar
     3    1    4       1
     4    1   53       1
     5    4    5       1
     6    5    6       1
     7    6    7       1
     8    6    8       1
     9    7   12       1
    10    8    9       1
    11    8   10       1
    12   10   11       1
    13   10   12       1
    14   12   13       1
    15   13   14       1
    16   13   22       1
    17   14   15       2
    18   15   16       1
    19   16   17      ar
    20   16   22      ar
    21   17   18       1
    22   17   19      ar
    23   19   20      ar
    24   20   21      ar
    25   21   22      ar
    26   23   24       1
    27   23   40       2
    28   24   25       2
    29   24   26       1
    30   26   27       1
    31   27   28       2
    32   27   29       1
    33   29   30       2
    34   29   40       1
    35   30   31       1
    36   31   32       1
    37   31   38       2
    38   32   33       1
    39   33   34       1
    40   33   35       1
    41   35   36       1
    42   35   37       1
    43   37   38       1
    44   38   39       1
    45   39   40       1
    46   39   41       1
    47   41   42       1
    48   42   43       2
    49   42   44       1
    50   44   45       1
    51   44   46       1
    52   46   47       1
    53   46   48       1
    54   48   49       1
    55   49   50       1
    56   50   51      ar
    57   50   52      ar
    58   50   53       1
    59   48   86       1
    60    5   54       1
    61    5   55       1
    62    6   56       1
    63    8   57       1
    64    9   58       1
    65   10   59       1
    66   11   60       1
    67   12   61       1
    68   14   62       1
    69   18   63       1
    70   18   64       1
    71   20   65       1
    72   26   66       1
    73   32   67       1
    74   32   68       1
    75   33   69       1
    76   34   70       1
    77   34   71       1
    78   34   72       1
    79   35   73       1
    80   36   74       1
    81   36   75       1
    82   36   76       1
    83   37   77       1
    84   37   78       1
    85   41   79       1
    86   41   80       1
    87   44   81       1
    88   45   82       1
    89   46   83       1
    90   47   84       1
    91   48   85       1
@<TRIPOS>SUBSTRUCTURE
     1 FDA483      1 GROUP             4 A     FDA     0 **** FDA A 483
