@<TRIPOS>MOLECULE
./coach420/2dtt/ligand.pdb
 33 34 0 0 0
SMALL
GASTEIGER

@<TRIPOS>ATOM
      1  N1       -11.8870   15.1300   50.2890 N.2   1001  H4B1001    -0.3515
      2  C2       -10.6920   15.0470   50.8570 C.2   1001  H4B1001     0.3023
      3  N2        -9.5990   15.4440   50.1400 N.pl3 1001  H4B1001    -0.0763
      4  N3       -10.5120   14.5710   52.1440 N.am  1001  H4B1001    -0.1311
      5  C4       -11.5830   14.1590   52.9040 C.2   1001  H4B1001     0.2797
      6  O4       -11.4270   13.7390   54.0360 O.2   1001  H4B1001    -0.2702
      7  C4A      -12.9360   14.2400   52.2890 C.3   1001  H4B1001     0.2511
      8  C8A      -13.0230   14.7530   50.9400 C.2   1001  H4B1001     0.2249
      9  N5       -14.0630   13.8610   52.9330 N.2   1001  H4B1001    -0.2545
     10  N8       -14.2450   14.8370   50.3530 N.2   1001  H4B1001    -0.2148
     11  C6       -15.2630   13.9530   52.3280 C.2   1001  H4B1001     0.1066
     12  C7       -15.3540   14.4550   51.0090 C.2   1001  H4B1001     0.1182
     13  C9       -16.5220   13.5190   53.0460 C.3   1001  H4B1001     0.2228
     14  O9       -17.5670   14.4760   52.8210 O.3   1001  H4B1001    -0.2139
     15  C10      -16.9690   12.1350   52.5330 C.3   1001  H4B1001     0.1880
     16  C11      -18.2410   11.7030   53.2460 C.3   1001  H4B1001     0.0387
     17  O10      -15.9460   11.1510   52.7640 O.3   1001  H4B1001    -0.2200
     18  C2         9.6120   -9.6020   60.2530 C.2   1002  H4B1002     0.1947
     19  N2        10.1890   -8.4000   59.9460 N.pl3 1002  H4B1002    -0.1070
     20  N3         9.5970  -10.6010   59.2940 N.am  1002  H4B1002    -0.1534
     21  C4         9.0300  -11.8300   59.5550 C.2   1002  H4B1002     0.2895
     22  O4         9.0160  -12.7090   58.7110 O.2   1002  H4B1002    -0.2662
     23  C4A        8.4260  -12.0380   60.9020 C.ar  1002  H4B1002     0.1553
     24  C8A        8.4950  -10.9380   61.8400 C.ar  1002  H4B1002     0.1226
     25  N5         7.8410  -13.2000   61.2760 N.ar  1002  H4B1002    -0.2393
     26  N8         7.9510  -11.1010   63.0760 N.ar  1002  H4B1002    -0.2393
     27  C6         7.3110  -13.3350   62.5090 C.ar  1002  H4B1002     0.1109
     28  C7         7.3720  -12.2620   63.4290 C.ar  1002  H4B1002     0.1162
     29  C9         6.6510  -14.6320   62.9240 C.3   1002  H4B1002     0.2231
     30  O9         7.1460  -15.0280   64.2110 O.3   1002  H4B1002    -0.2138
     31  C10        5.1220  -14.4550   62.9790 C.3   1002  H4B1002     0.1880
     32  C11        4.4600  -15.7640   63.4200 C.3   1002  H4B1002     0.0387
     33  O10        4.6230  -14.0760   61.6860 O.3   1002  H4B1002    -0.2200
@<TRIPOS>BOND
     1     1     2    2
     2     1     8    2
     3     2     3    1
     4     2     4    1
     5     4     5   am
     6     5     7    1
     7     5     6    2
     8     7     8    1
     9     7     9    1
    10     8    10    1
    11     9    11    2
    12    10    12    2
    13    11    12    1
    14    11    13    1
    15    13    15    1
    16    13    14    1
    17    15    17    1
    18    15    16    1
    19    18    20    2
    20    18    19    1
    21    20    21    1
    22    21    22    2
    23    21    23    1
    24    23    25   ar
    25    23    24   ar
    26    24    26   ar
    27    25    27   ar
    28    26    28   ar
    29    27    29    1
    30    27    28   ar
    31    29    31    1
    32    29    30    1
    33    31    33    1
    34    31    32    1
