@<TRIPOS>MOLECULE
3c41_ANP_1_ligand
   44    46     1     0     0
SMALL
NO_CHARGES


@<TRIPOS>ATOM
     1 PG          14.9920     8.9960     3.7970 P.3          1 ANP601   0.0000
     2 O1G         15.5320     9.9980     2.8520 O.co2        1 ANP601   0.0000
     3 O2G         14.6230     9.3810     5.3150 O.co2        1 ANP601  -1.0000
     4 O3G         14.2030     7.6970     3.2690 O.co2        1 ANP601  -1.0000
     5 PB          16.2330     7.0230     5.2780 P.3          1 ANP601   0.0000
     6 O1B         15.9240     7.5350     6.6330 O.co2        1 ANP601   0.0000
     7 O2B         15.1230     5.9700     4.7780 O.co2        1 ANP601  -1.0000
     8 N3B         16.3640     8.2060     4.1700 N.3          1 ANP601   0.0000
     9 PA          17.8290     4.7900     4.5640 P.3          1 ANP601   0.0000
    10 O1A         17.4060     3.6950     5.4650 O.co2        1 ANP601   0.0000
    11 O2A         17.0260     4.7940     3.1710 O.co2        1 ANP601  -1.0000
    12 O3A         17.6420     6.2440     5.2330 O.3          1 ANP601   0.0000
    13 O5'         19.3850     4.7150     4.1640 O.3          1 ANP601   0.0000
    14 C5'         20.3780     4.9790     5.1570 C.3          1 ANP601   0.0000
    15 C4'         21.7720     5.0440     4.5300 C.3          1 ANP601   0.0000
    16 O4'         22.0510     3.8050     3.8550 O.3          1 ANP601   0.0000
    17 C3'         21.8180     6.1380     3.4580 C.3          1 ANP601   0.0000
    18 O3'         23.0170     6.9030     3.6050 O.3          1 ANP601   0.0000
    19 C2'         21.8880     5.3250     2.1660 C.3          1 ANP601   0.0000
    20 O2'         22.6030     6.0760     1.1820 O.3          1 ANP601   0.0000
    21 C1'         22.7760     4.1950     2.6800 C.3          1 ANP601   0.0000
    22 N9          22.8640     3.0750     1.7090 N.pl3        1 ANP601   0.0000
    23 C8          23.8910     2.8150     0.9030 C.2          1 ANP601   0.0000
    24 N7          23.6430     1.7050     0.2070 N.2          1 ANP601   0.0000
    25 C5          22.4470     1.2570     0.5700 C.ar         1 ANP601   0.0000
    26 C6          21.6590     0.1750     0.1940 C.ar         1 ANP601   0.0000
    27 N6          22.0860    -0.6910    -0.7220 N.pl3        1 ANP601   0.0000
    28 N1          20.4560     0.0190     0.7650 N.ar         1 ANP601   0.0000
    29 C2          20.0150     0.8740     1.6710 C.ar         1 ANP601   0.0000
    30 N3          20.7330     1.9140     2.0570 N.ar         1 ANP601   0.0000
    31 C4          21.9480     2.1330     1.5280 C.ar         1 ANP601   0.0000
    32 H3B         16.7195     7.7982     3.3290 H            1 ANP601   0.0000
    33 H5'1        20.3599     4.2492     5.8404 H            1 ANP601   0.0000
    34 H5'2        20.1760     5.8536     5.5978 H            1 ANP601   0.0000
    35 H4'         22.4610     5.2185     5.2335 H            1 ANP601   0.0000
    36 H3'         21.0037     6.7178     3.4863 H            1 ANP601   0.0000
    37 H6          22.8549     7.8397     3.2946 H            1 ANP601   0.0000
    38 H2'         20.9933     5.0105     1.8489 H            1 ANP601   0.0000
    39 H8          23.2747     6.6630     1.6339 H            1 ANP601   0.0000
    40 H1'         23.6860     4.5349     2.9175 H            1 ANP601   0.0000
    41 H10         24.7213     3.3675     0.8306 H            1 ANP601   0.0000
    42 H11         21.5105    -1.4655    -0.9845 H            1 ANP601   0.0000
    43 H12         22.9823    -0.5672    -1.1477 H            1 ANP601   0.0000
    44 H13         19.1121     0.7298     2.0760 H            1 ANP601   0.0000
@<TRIPOS>BOND
     1    1    2      ar
     2    1    3      ar
     3    1    4      ar
     4    1    8       1
     5    5    6      ar
     6    5    7      ar
     7    5    8       1
     8    5   12       1
     9    9   10      ar
    10    9   11      ar
    11    9   12       1
    12    9   13       1
    13   13   14       1
    14   14   15       1
    15   15   16       1
    16   15   17       1
    17   16   21       1
    18   17   18       1
    19   17   19       1
    20   19   20       1
    21   19   21       1
    22   21   22       1
    23   22   23       1
    24   22   31       1
    25   23   24       2
    26   24   25       1
    27   25   26      ar
    28   25   31      ar
    29   26   27       1
    30   26   28      ar
    31   28   29      ar
    32   29   30      ar
    33   30   31      ar
    34   29   44       1
    35   27   43       1
    36   27   42       1
    37    8   32       1
    38   23   41       1
    39   14   33       1
    40   14   34       1
    41   15   35       1
    42   17   36       1
    43   18   37       1
    44   19   38       1
    45   20   39       1
    46   21   40       1
@<TRIPOS>SUBSTRUCTURE
     1 ANP601      1 GROUP             4 J     ANP     0 **** ANP J 601
