@<TRIPOS>MOLECULE
5c77_SAH_1_ligand
   46    48     1     0     0
SMALL
NO_CHARGES


@<TRIPOS>ATOM
     1 N          -10.1830   -17.0460    90.1820 N.4          1 SAH301   1.0000
     2 CA         -11.4830   -16.5740    89.7150 C.3          1 SAH301   0.0000
     3 CB         -12.0540   -17.5280    88.6640 C.3          1 SAH301   0.0000
     4 CG         -13.1300   -16.9230    87.7620 C.3          1 SAH301   0.0000
     5 SD         -13.8590   -18.0950    86.5830 S.3          1 SAH301   0.0000
     6 C          -12.4520   -16.3920    90.8880 C.2          1 SAH301   0.0000
     7 O          -13.5830   -15.9250    90.7170 O.co2        1 SAH301   0.0000
     8 OXT        -12.1250   -16.7000    92.0400 O.co2        1 SAH301  -1.0000
     9 C5'        -15.4600   -17.2850    86.7990 C.3          1 SAH301   0.0000
    10 C4'        -15.8830   -16.4660    85.5860 C.3          1 SAH301   0.0000
    11 O4'        -16.3030   -17.3060    84.5240 O.3          1 SAH301   0.0000
    12 C3'        -17.0550   -15.5670    85.9520 C.3          1 SAH301   0.0000
    13 O3'        -16.6090   -14.2580    86.1730 O.3          1 SAH301   0.0000
    14 C2'        -17.9390   -15.5800    84.7380 C.3          1 SAH301   0.0000
    15 O2'        -17.5640   -14.5190    83.8800 O.3          1 SAH301   0.0000
    16 C1'        -17.5700   -16.8750    84.0570 C.3          1 SAH301   0.0000
    17 N9         -18.6070   -17.8820    84.3430 N.pl3        1 SAH301   0.0000
    18 C8         -18.4520   -19.0720    85.0020 C.2          1 SAH301   0.0000
    19 N7         -19.6440   -19.7000    85.0510 N.2          1 SAH301   0.0000
    20 C5         -20.5640   -18.9270    84.4350 C.ar         1 SAH301   0.0000
    21 C6         -21.9280   -19.0810    84.1950 C.ar         1 SAH301   0.0000
    22 N6         -22.5750   -20.1660    84.6060 N.pl3        1 SAH301   0.0000
    23 N1         -22.6120   -18.0890    83.5230 N.ar         1 SAH301   0.0000
    24 C2         -21.9610   -16.9600    83.0850 C.ar         1 SAH301   0.0000
    25 N3         -20.6160   -16.8110    83.3280 N.ar         1 SAH301   0.0000
    26 C4         -19.9250   -17.7770    83.9850 C.ar         1 SAH301   0.0000
    27 H1          -9.8247   -16.4120    90.8673 H            1 SAH301   0.0000
    28 H2         -10.2844   -17.9539    90.5886 H            1 SAH301   0.0000
    29 HA         -11.3505   -15.6820    89.2828 H            1 SAH301   0.0000
    30 HB1        -12.4525   -18.3120    89.1400 H            1 SAH301   0.0000
    31 HB2        -11.3007   -17.8379    88.0839 H            1 SAH301   0.0000
    32 HG1        -12.7195   -16.1722    87.2445 H            1 SAH301   0.0000
    33 HG2        -13.8618   -16.5665    88.3428 H            1 SAH301   0.0000
    34 H5'1       -15.4047   -16.6764    87.5905 H            1 SAH301   0.0000
    35 H5'2       -16.1521   -17.9872    86.9661 H            1 SAH301   0.0000
    36 H4'        -15.1149   -15.9031    85.2807 H            1 SAH301   0.0000
    37 H3'        -17.5404   -15.9196    86.7520 H            1 SAH301   0.0000
    38 H12        -16.6350   -13.7474    85.3136 H            1 SAH301   0.0000
    39 H2'        -18.9090   -15.5445    84.9785 H            1 SAH301   0.0000
    40 H14        -18.3410   -13.9024    83.7531 H            1 SAH301   0.0000
    41 H1'        -17.5221   -16.7245    83.0695 H            1 SAH301   0.0000
    42 H16        -17.5953   -19.4185    85.3842 H            1 SAH301   0.0000
    43 H17        -23.5540   -20.2624    84.4264 H            1 SAH301   0.0000
    44 H18        -22.0830   -20.8863    85.0950 H            1 SAH301   0.0000
    45 H19        -22.4637   -16.2501    82.5917 H            1 SAH301   0.0000
    46 H20         -9.5493   -17.0954    89.4100 H            1 SAH301   0.0000
@<TRIPOS>BOND
     1    1    2       1
     2    2    3       1
     3    2    6       1
     4    3    4       1
     5    4    5       1
     6    5    9       1
     7    6    7      ar
     8    6    8      ar
     9    9   10       1
    10   10   11       1
    11   10   12       1
    12   11   16       1
    13   12   13       1
    14   12   14       1
    15   14   15       1
    16   14   16       1
    17   16   17       1
    18   17   18       1
    19   17   26       1
    20   18   19       2
    21   19   20       1
    22   20   21      ar
    23   20   26      ar
    24   21   22       1
    25   21   23      ar
    26   23   24      ar
    27   24   25      ar
    28   25   26      ar
    29    1   27       1
    30    1   28       1
    31    2   29       1
    32    3   30       1
    33    3   31       1
    34    4   32       1
    35    4   33       1
    36    1   46       1
    37    9   34       1
    38    9   35       1
    39   10   36       1
    40   12   37       1
    41   13   38       1
    42   14   39       1
    43   15   40       1
    44   16   41       1
    45   18   42       1
    46   22   43       1
    47   22   44       1
    48   24   45       1
@<TRIPOS>SUBSTRUCTURE
     1 SAH301      1 GROUP             4 A     SAH     0 **** SAH A 301
