@<TRIPOS>MOLECULE
4msg_2C6_1_ligand
   59    63     1     0     0
SMALL
NO_CHARGES


@<TRIPOS>ATOM
     1 N1          -1.0390    43.0350    29.9750 N.pl3        1 2C61402   0.0000
     2 C9           0.2560    42.5600    29.9240 C.2          1 2C61402   0.0000
     3 O1           0.6090    41.5870    30.5720 O.2          1 2C61402   0.0000
     4 C10          1.2140    43.2590    29.0930 C.ar         1 2C61402   0.0000
     5 C11          2.5980    42.8490    28.9060 C.ar         1 2C61402   0.0000
     6 C15          3.4770    43.6060    28.0040 C.ar         1 2C61402   0.0000
     7 C16          2.9580    44.7800    27.2680 C.ar         1 2C61402   0.0000
     8 C17          1.5680    45.1970    27.4470 C.ar         1 2C61402   0.0000
     9 C7           0.6690    44.4460    28.3320 C.ar         1 2C61402   0.0000
    10 N2          -0.6740    44.8030    28.4930 N.2          1 2C61402   0.0000
    11 C8          -1.5040    44.1180    29.2620 C.2          1 2C61402   0.0000
    12 S1          -3.2330    44.5000    29.3940 S.3          1 2C61402   0.0000
    13 C18         -9.0150    39.7620    27.1020 C.2          1 2C61402   0.0000
    14 N4          -8.5640    38.6090    26.6270 N.2          1 2C61402   0.0000
    15 N5          -9.4470    37.5810    26.7760 N.2          1 2C61402   0.0000
    16 C19        -10.5060    38.2180    27.3980 C.2          1 2C61402   0.0000
    17 C20        -11.7980    37.6180    27.8540 C.ar         1 2C61402   0.0000
    18 O2         -10.2280    39.5490    27.5890 O.2          1 2C61402   0.0000
    19 C21        -12.0530    36.1700    27.7070 C.ar         1 2C61402   0.0000
    20 C22        -13.3030    35.5800    28.1640 C.ar         1 2C61402   0.0000
    21 C23        -14.3270    36.4160    28.7710 C.ar         1 2C61402   0.0000
    22 C24        -14.1070    37.8550    28.9320 C.ar         1 2C61402   0.0000
    23 C25        -12.8430    38.4540    28.4720 C.ar         1 2C61402   0.0000
    24 C1          -6.2900    42.2440    28.0430 C.3          1 2C61402   0.0000
    25 C2          -5.9600    42.7010    26.6210 C.3          1 2C61402   0.0000
    26 C3          -7.1830    42.7890    25.7050 C.3          1 2C61402   0.0000
    27 C4          -8.0140    41.5100    25.7160 C.3          1 2C61402   0.0000
    28 C5          -8.3720    41.0640    27.1340 C.3          1 2C61402   0.0000
    29 C6          -7.1840    40.9900    28.0960 C.3          1 2C61402   0.0000
    30 C12         -3.5030    45.7990    28.1460 C.3          1 2C61402   0.0000
    31 C13         -3.3040    45.3060    26.6810 C.3          1 2C61402   0.0000
    32 C14         -3.9920    43.9550    26.5370 C.2          1 2C61402   0.0000
    33 O3          -3.3210    42.9470    26.3530 O.2          1 2C61402   0.0000
    34 N3          -5.3360    43.9980    26.6640 N.am         1 2C61402   0.0000
    35 H1          -1.6853    42.5593    30.5717 H            1 2C61402   0.0000
    36 H2           2.9516    42.0501    29.3926 H            1 2C61402   0.0000
    37 H3           4.4300    43.3265    27.8871 H            1 2C61402   0.0000
    38 H4           3.5572    45.2877    26.6489 H            1 2C61402   0.0000
    39 H5           1.2263    46.0018    26.9617 H            1 2C61402   0.0000
    40 H6         -11.3571    35.5870    27.2877 H            1 2C61402   0.0000
    41 H7         -13.4580    34.5975    28.0604 H            1 2C61402   0.0000
    42 H8         -15.1853    36.0062    29.0799 H            1 2C61402   0.0000
    43 H9         -14.8112    38.4275    29.3519 H            1 2C61402   0.0000
    44 H10        -12.6922    39.4367    28.5798 H            1 2C61402   0.0000
    45 H11         -6.7628    42.9894    28.5129 H            1 2C61402   0.0000
    46 H12         -5.4330    42.0416    28.5169 H            1 2C61402   0.0000
    47 H13         -5.3124    42.0516    26.2224 H            1 2C61402   0.0000
    48 H14         -6.8720    42.9614    24.7704 H            1 2C61402   0.0000
    49 H15         -7.7583    43.5479    26.0101 H            1 2C61402   0.0000
    50 H16         -7.4907    40.7825    25.2724 H            1 2C61402   0.0000
    51 H17         -8.8592    41.6710    25.2063 H            1 2C61402   0.0000
    52 H18         -9.0277    41.7210    27.5060 H            1 2C61402   0.0000
    53 H19         -7.5335    40.8865    29.0272 H            1 2C61402   0.0000
    54 H20         -6.6296    40.1927    27.8575 H            1 2C61402   0.0000
    55 H21         -2.8582    46.5434    28.3196 H            1 2C61402   0.0000
    56 H22         -4.4385    46.1394    28.2409 H            1 2C61402   0.0000
    57 H23         -2.3279    45.2116    26.4851 H            1 2C61402   0.0000
    58 H24         -3.7097    45.9622    26.0448 H            1 2C61402   0.0000
    59 H25         -5.8487    44.8491    26.7771 H            1 2C61402   0.0000
@<TRIPOS>BOND
     1    1    2       1
     2    1   11       1
     3    2    3       2
     4    2    4       1
     5    4    5      ar
     6    4    9      ar
     7    5    6      ar
     8    6    7      ar
     9    7    8      ar
    10    8    9      ar
    11    9   10       1
    12   10   11       2
    13   11   12       1
    14   12   30       1
    15   13   14       2
    16   13   18       1
    17   13   28       1
    18   14   15       1
    19   15   16       2
    20   16   17       1
    21   16   18       1
    22   17   19      ar
    23   17   23      ar
    24   19   20      ar
    25   20   21      ar
    26   21   22      ar
    27   22   23      ar
    28   24   25       1
    29   24   29       1
    30   25   26       1
    31   25   34       1
    32   26   27       1
    33   27   28       1
    34   28   29       1
    35   30   31       1
    36   31   32       1
    37   32   33       2
    38   32   34      am
    39    1   35       1
    40    5   36       1
    41    6   37       1
    42    7   38       1
    43    8   39       1
    44   19   40       1
    45   20   41       1
    46   21   42       1
    47   22   43       1
    48   23   44       1
    49   24   45       1
    50   24   46       1
    51   25   47       1
    52   26   48       1
    53   26   49       1
    54   27   50       1
    55   27   51       1
    56   28   52       1
    57   29   53       1
    58   29   54       1
    59   30   55       1
    60   30   56       1
    61   31   57       1
    62   31   58       1
    63   34   59       1
@<TRIPOS>SUBSTRUCTURE
     1 2C61402     1 GROUP             4 A     2C6     0 **** 2C6 A1402
