@<TRIPOS>MOLECULE
4pxz_6AD_1_ligand
   43    45     1     0     0
SMALL
USER_CHARGES


@<TRIPOS>ATOM
     1 O2B         16.1810     1.0250    59.4450 O.co2        1 6AD1201  -0.5000
     2 PB          16.5690     0.9840    57.8700 P.3          1 6AD1201   0.0000
     3 O3B         18.0030     0.2770    57.7720 O.co2        1 6AD1201  -0.5000
     4 O1B         16.5710     2.3390    57.2630 O.co2        1 6AD1201  -0.5000
     5 O3A         15.4810    -0.0350    57.2970 O.3          1 6AD1201   0.0000
     6 PA          15.5990    -0.9940    55.9910 P.3          1 6AD1201   0.0000
     7 O2A         15.9400    -2.3880    56.3560 O.co2        1 6AD1201  -0.5000
     8 O1A         16.3430    -0.3060    54.9040 O.co2        1 6AD1201  -0.5000
     9 O5'         14.0340    -1.0530    55.6750 O.3          1 6AD1201   0.0000
    10 C5'         13.2670     0.0750    55.1880 C.3          1 6AD1201   0.0000
    11 C4'         11.8890    -0.4060    54.6590 C.3          1 6AD1201   0.0000
    12 O4'         12.0110    -1.1130    53.3820 O.3          1 6AD1201   0.0000
    13 C3'         11.1970    -1.3740    55.6310 C.3          1 6AD1201   0.0000
    14 O3'          9.7690    -1.2260    55.6060 O.3          1 6AD1201   0.0000
    15 C2'         11.5820    -2.7230    55.1070 C.3          1 6AD1201   0.0000
    16 O2'         10.6340    -3.7270    55.4220 O.3          1 6AD1201   0.0000
    17 C1'         11.6870    -2.5250    53.6030 C.3          1 6AD1201   0.0000
    18 N9          12.7030    -3.4490    53.0020 N.pl3        1 6AD1201   0.0000
    19 C8          13.8860    -3.8130    53.5020 C.2          1 6AD1201   0.0000
    20 N7          14.4340    -4.7130    52.6970 N.2          1 6AD1201   0.0000
    21 C5          13.6120    -4.8950    51.6590 C.ar         1 6AD1201   0.0000
    22 C4          12.5180    -4.1360    51.8800 C.ar         1 6AD1201   0.0000
    23 N3          11.5050    -4.1350    50.9960 N.ar         1 6AD1201   0.0000
    24 C2          11.5660    -4.9030    49.8920 C.ar         1 6AD1201   0.0000
    25 S1          10.1910    -4.8640    48.7880 S.3          1 6AD1201   0.0000
    26 C11         10.2930    -6.4090    47.9090 C.3          1 6AD1201   0.0000
    27 N1          12.6770    -5.6360    49.6440 N.ar         1 6AD1201   0.0000
    28 C6          13.6880    -5.6420    50.5320 C.ar         1 6AD1201   0.0000
    29 N6          14.7610    -6.4160    50.3480 N.pl3        1 6AD1201   0.0000
    30 H5'1        13.7687     0.5209    54.4467 H            1 6AD1201   0.0000
    31 H5'2        13.1261     0.7260    55.9339 H            1 6AD1201   0.0000
    32 H4'         11.3002     0.3916    54.5283 H            1 6AD1201   0.0000
    33 H3'         11.5459    -1.2466    56.5595 H            1 6AD1201   0.0000
    34 H5           9.5358    -0.2802    55.3798 H            1 6AD1201   0.0000
    35 H2'         12.4760    -2.9810    55.4732 H            1 6AD1201   0.0000
    36 H7          10.2782    -4.1263    54.5771 H            1 6AD1201   0.0000
    37 H1'         10.7961    -2.7174    53.1916 H            1 6AD1201   0.0000
    38 H9          14.2927    -3.4638    54.3462 H            1 6AD1201   0.0000
    39 H10          9.5403    -6.4699    47.2534 H            1 6AD1201   0.0000
    40 H11         11.1646    -6.4581    47.4213 H            1 6AD1201   0.0000
    41 H12         10.2314    -7.1668    48.5586 H            1 6AD1201   0.0000
    42 H13         14.8381    -6.9760    49.5231 H            1 6AD1201   0.0000
    43 H14         15.4872    -6.4355    51.0352 H            1 6AD1201   0.0000
@<TRIPOS>BOND
     1    1    2      ar
     2    2    3      ar
     3    2    4      ar
     4    2    5       1
     5    5    6       1
     6    6    7      ar
     7    6    8      ar
     8    6    9       1
     9    9   10       1
    10   10   11       1
    11   11   12       1
    12   11   13       1
    13   12   17       1
    14   13   14       1
    15   13   15       1
    16   15   16       1
    17   15   17       1
    18   17   18       1
    19   18   19       1
    20   18   22       1
    21   19   20       2
    22   20   21       1
    23   21   22      ar
    24   21   28      ar
    25   22   23      ar
    26   23   24      ar
    27   24   25       1
    28   24   27      ar
    29   25   26       1
    30   27   28      ar
    31   28   29       1
    32   29   43       1
    33   29   42       1
    34   26   41       1
    35   10   30       1
    36   10   31       1
    37   11   32       1
    38   13   33       1
    39   14   34       1
    40   15   35       1
    41   16   36       1
    42   17   37       1
    43   19   38       1
    44   26   39       1
    45   26   40       1
@<TRIPOS>SUBSTRUCTURE
     1 6AD1201     1 GROUP             4 A     6AD     0 **** 6AD A1201
