@<TRIPOS>MOLECULE
3hzt_J60_1_ligand
   57    59     1     0     0
SMALL
NO_CHARGES


@<TRIPOS>ATOM
     1 CBA         14.2680    -7.4830    21.3320 C.3          1 J60540   0.0000
     2 CAZ         13.0040    -8.2150    20.8630 C.3          1 J60540   0.0000
     3 NAX         12.0860    -8.4010    22.0040 N.4          1 J60540   1.0000
     4 CAY         11.9710    -9.8330    22.3610 C.3          1 J60540   0.0000
     5 CBB         12.7890   -10.1270    23.6230 C.3          1 J60540   0.0000
     6 CAW         10.7980    -7.6870    21.7960 C.3          1 J60540   0.0000
     7 CAV          9.6600    -8.6090    21.3080 C.3          1 J60540   0.0000
     8 NAU          8.6660    -8.8080    22.3890 N.am         1 J60540   0.0000
     9 CAS          8.4580    -9.9680    23.0230 C.2          1 J60540   0.0000
    10 OAT          9.0050   -11.0320    22.7500 O.2          1 J60540   0.0000
    11 CAN          7.3440    -9.9270    24.0730 C.2          1 J60540   0.0000
    12 CAM          6.8830    -8.8100    24.7380 C.2          1 J60540   0.0000
    13 CAQ          7.4210    -7.3710    24.5930 C.3          1 J60540   0.0000
    14 CAO          6.5720   -10.9900    24.5230 C.2          1 J60540   0.0000
    15 CAR          6.6750   -12.4630    24.1060 C.3          1 J60540   0.0000
    16 NAP          5.6880   -10.5450    25.4090 N.pl3        1 J60540   0.0000
    17 CAL          5.8410    -9.2210    25.5780 C.2          1 J60540   0.0000
    18 CAK          5.2000    -8.2920    26.3950 C.2          1 J60540   0.0000
    19 CAG          4.1300    -8.5590    27.2610 C.2          1 J60540   0.0000
    20 CAE          3.5100    -7.5910    28.0550 C.ar         1 J60540   0.0000
    21 CAD          3.7050    -6.2060    28.2490 C.ar         1 J60540   0.0000
    22 CAA          2.8680    -5.5200    29.1490 C.ar         1 J60540   0.0000
    23 CL           3.0230    -3.8170    29.4740 Cl           1 J60540   0.0000
    24 CAB          1.8670    -6.2090    29.8200 C.ar         1 J60540   0.0000
    25 CAC          1.6740    -7.5760    29.6250 C.ar         1 J60540   0.0000
    26 CAF          2.4960    -8.2730    28.7440 C.ar         1 J60540   0.0000
    27 NAH          2.5010    -9.5690    28.3890 N.am         1 J60540   0.0000
    28 CAI          3.4760    -9.7640    27.5000 C.2          1 J60540   0.0000
    29 OAJ          3.7280   -10.8580    26.9910 O.2          1 J60540   0.0000
    30 HBA1        14.8879    -7.3584    20.5573 H            1 J60540   0.0000
    31 HBA2        14.0169    -6.5898    21.7050 H            1 J60540   0.0000
    32 HBA3        14.7232    -8.0237    22.0395 H            1 J60540   0.0000
    33 HAZ1        13.2559    -9.1079    20.4898 H            1 J60540   0.0000
    34 HAZ2        12.5496    -7.6740    20.1553 H            1 J60540   0.0000
    35 HAY1        12.3153   -10.3910    21.6060 H            1 J60540   0.0000
    36 HAY2        11.0109   -10.0560    22.5295 H            1 J60540   0.0000
    37 HBB1        12.7054   -11.0958    23.8563 H            1 J60540   0.0000
    38 HBB2        13.7499    -9.9060    23.4564 H            1 J60540   0.0000
    39 HBB3        12.4455    -9.5710    24.3799 H            1 J60540   0.0000
    40 HAW1        10.9395    -6.9694    21.1141 H            1 J60540   0.0000
    41 HAW2        10.5211    -7.2729    22.6631 H            1 J60540   0.0000
    42 HAV1        10.0423    -9.4943    21.0432 H            1 J60540   0.0000
    43 HAV2         9.2108    -8.1904    20.5187 H            1 J60540   0.0000
    44 HAU          8.1128    -8.0215    22.6635 H            1 J60540   0.0000
    45 HAQ1         6.9034    -6.7597    25.1917 H            1 J60540   0.0000
    46 HAQ2         8.3874    -7.3490    24.8492 H            1 J60540   0.0000
    47 HAQ3         7.3209    -7.0717    23.6441 H            1 J60540   0.0000
    48 HAR1         5.9876   -12.9975    24.5978 H            1 J60540   0.0000
    49 HAR2         6.5176   -12.5426    23.1217 H            1 J60540   0.0000
    50 HAR3         7.5869   -12.8090    24.3268 H            1 J60540   0.0000
    51 HAP          5.0105   -11.1104    25.8794 H            1 J60540   0.0000
    52 HAK          5.5331    -7.3497    26.3607 H            1 J60540   0.0000
    53 HAD          4.4261    -5.7204    27.7549 H            1 J60540   0.0000
    54 HAB          1.2730    -5.7155    30.4553 H            1 J60540   0.0000
    55 HAC          0.9467    -8.0546    30.1169 H            1 J60540   0.0000
    56 HAH          1.8774   -10.2706    28.7340 H            1 J60540   0.0000
    57 HAX         12.5242    -7.9567    22.7854 H            1 J60540   0.0000
@<TRIPOS>BOND
     1    1    2       1
     2    2    3       1
     3    3    4       1
     4    3    6       1
     5    4    5       1
     6    6    7       1
     7    7    8       1
     8    8    9      am
     9    9   10       2
    10    9   11       1
    11   11   12       1
    12   11   14       2
    13   12   13       1
    14   12   17       2
    15   14   15       1
    16   14   16       1
    17   16   17       1
    18   17   18       1
    19   18   19       2
    20   19   20       1
    21   19   28       1
    22   20   21      ar
    23   20   26      ar
    24   21   22      ar
    25   22   23       1
    26   22   24      ar
    27   24   25      ar
    28   25   26      ar
    29   26   27       1
    30   27   28      am
    31   28   29       2
    32    1   30       1
    33    1   31       1
    34    1   32       1
    35    2   33       1
    36    2   34       1
    37    4   35       1
    38    4   36       1
    39    5   37       1
    40    5   38       1
    41    5   39       1
    42    6   40       1
    43    6   41       1
    44    7   42       1
    45    7   43       1
    46    8   44       1
    47   13   45       1
    48   13   46       1
    49   13   47       1
    50   15   48       1
    51   15   49       1
    52   15   50       1
    53   16   51       1
    54   18   52       1
    55   21   53       1
    56   24   54       1
    57   25   55       1
    58   27   56       1
    59    3   57       1
@<TRIPOS>SUBSTRUCTURE
     1 J60540      1 GROUP             4 A     J60     0 **** J60 A 540
