@<TRIPOS>MOLECULE
1nff_NAD_1_ligand
   70    74     1     0     0
SMALL
NO_CHARGES


@<TRIPOS>ATOM
     1 PA           2.9660    43.4980    52.2540 P.3          1 NAD1300   0.0000
     2 O1A          2.9810    44.1970    50.9480 O.co2        1 NAD1300   0.0000
     3 O2A          2.7970    44.3830    53.4380 O.co2        1 NAD1300  -1.0000
     4 O5B          4.3390    42.7570    52.4810 O.3          1 NAD1300   0.0000
     5 C5B          4.8330    41.8550    51.4760 C.3          1 NAD1300   0.0000
     6 C4B          6.3210    41.9900    51.6650 C.3          1 NAD1300   0.0000
     7 O4B          7.0300    41.1840    50.6610 O.3          1 NAD1300   0.0000
     8 C3B          6.8580    43.4270    51.5170 C.3          1 NAD1300   0.0000
     9 O3B          7.7330    43.7730    52.6300 O.3          1 NAD1300   0.0000
    10 C2B          7.5200    43.3310    50.1640 C.3          1 NAD1300   0.0000
    11 O2B          8.5410    44.3280    49.9930 O.3          1 NAD1300   0.0000
    12 C1B          8.0840    41.9100    50.1790 C.3          1 NAD1300   0.0000
    13 N9A          8.3940    41.4800    48.8360 N.pl3        1 NAD1300   0.0000
    14 C8A          7.6640    41.6840    47.6930 C.2          1 NAD1300   0.0000
    15 N7A          8.2420    41.1680    46.6000 N.2          1 NAD1300   0.0000
    16 C5A          9.4020    40.6100    47.1080 C.ar         1 NAD1300   0.0000
    17 C6A         10.4740    39.9050    46.4810 C.ar         1 NAD1300   0.0000
    18 N6A         10.5440    39.6440    45.1810 N.pl3        1 NAD1300   0.0000
    19 N1A         11.5050    39.4680    47.2830 N.ar         1 NAD1300   0.0000
    20 C2A         11.4420    39.7350    48.6330 C.ar         1 NAD1300   0.0000
    21 N3A         10.4900    40.3820    49.2870 N.ar         1 NAD1300   0.0000
    22 C4A          9.5020    40.7930    48.4780 C.ar         1 NAD1300   0.0000
    23 O3           1.8450    42.3650    52.1760 O.3          1 NAD1300   0.0000
    24 PN           1.3190    41.4900    53.4230 P.3          1 NAD1300   0.0000
    25 O1N         -0.0810    41.7370    53.8020 O.co2        1 NAD1300   0.0000
    26 O2N          2.2510    41.6810    54.5850 O.co2        1 NAD1300  -1.0000
    27 O5D          1.3270    40.0290    52.8140 O.3          1 NAD1300   0.0000
    28 C5D          2.4310    39.1160    53.0520 C.3          1 NAD1300   0.0000
    29 C4D          2.0100    37.8020    52.4300 C.3          1 NAD1300   0.0000
    30 O4D          0.6870    37.4900    52.9590 O.3          1 NAD1300   0.0000
    31 C3D          1.8660    37.7210    50.8980 C.3          1 NAD1300   0.0000
    32 O3D          2.2300    36.3890    50.4580 O.3          1 NAD1300   0.0000
    33 C2D          0.3820    37.9340    50.6810 C.3          1 NAD1300   0.0000
    34 O2D         -0.0600    37.4180    49.4060 O.3          1 NAD1300   0.0000
    35 C1D         -0.1890    37.2020    51.8750 C.3          1 NAD1300   0.0000
    36 N1N         -1.5830    37.5650    52.1900 N.ar         1 NAD1300   1.0000
    37 C2N         -1.9640    38.9010    52.4980 C.ar         1 NAD1300   0.0000
    38 C3N         -3.3620    39.2470    52.8160 C.ar         1 NAD1300   0.0000
    39 C7N         -3.6610    40.6800    53.1210 C.2          1 NAD1300   0.0000
    40 O7N         -4.8630    40.8830    53.3680 O.2          1 NAD1300   0.0000
    41 N7N         -2.7350    41.6790    53.1340 N.am         1 NAD1300   0.0000
    42 C4N         -4.3860    38.1690    52.8170 C.ar         1 NAD1300   0.0000
    43 C5N         -3.8920    36.7810    52.4880 C.ar         1 NAD1300   0.0000
    44 C6N         -2.6030    36.5560    52.2080 C.ar         1 NAD1300   0.0000
    45 H5B1         4.5530    42.1395    50.5591 H            1 NAD1300   0.0000
    46 H5B2         4.5263    40.9179    51.6424 H            1 NAD1300   0.0000
    47 H4B          6.5602    41.6509    52.5748 H            1 NAD1300   0.0000
    48 H3B          6.0940    44.0708    51.4747 H            1 NAD1300   0.0000
    49 H5           8.5079    43.1413    52.6537 H            1 NAD1300   0.0000
    50 H2B          6.8339    43.4180    49.4417 H            1 NAD1300   0.0000
    51 H7           9.4177    43.9649    50.3086 H            1 NAD1300   0.0000
    52 H1B          8.8812    41.8394    50.7786 H            1 NAD1300   0.0000
    53 H8A          6.7894    42.1685    47.6770 H            1 NAD1300   0.0000
    54 H6A1        11.3279    39.1439    44.8129 H            1 NAD1300   0.0000
    55 H6A2         9.8129    39.9475    44.5700 H            1 NAD1300   0.0000
    56 H2A         12.2061    39.4003    49.1845 H            1 NAD1300   0.0000
    57 H5D1         2.5867    39.0041    54.0335 H            1 NAD1300   0.0000
    58 H5D2         3.2656    39.4563    52.6188 H            1 NAD1300   0.0000
    59 H4D          2.6471    37.0909    52.7274 H            1 NAD1300   0.0000
    60 H3D          2.4105    38.4229    50.4387 H            1 NAD1300   0.0000
    61 H17          2.0175    35.7299    51.1795 H            1 NAD1300   0.0000
    62 H2D          0.1663    38.9083    50.7457 H            1 NAD1300   0.0000
    63 H19          0.4323    37.8823    48.6697 H            1 NAD1300   0.0000
    64 H1D         -0.1520    36.2198    51.6910 H            1 NAD1300   0.0000
    65 H2N         -1.2693    39.6203    52.4989 H            1 NAD1300   0.0000
    66 H7N1        -3.0128    42.6155    53.3478 H            1 NAD1300   0.0000
    67 H7N2        -1.7774    41.4758    52.9297 H            1 NAD1300   0.0000
    68 H4N         -5.3469    38.3529    53.0238 H            1 NAD1300   0.0000
    69 H5N         -4.5381    36.0178    52.4792 H            1 NAD1300   0.0000
    70 H6N         -2.3311    35.6173    51.9961 H            1 NAD1300   0.0000
@<TRIPOS>BOND
     1    1    2      ar
     2    1    3      ar
     3    1    4       1
     4    1   23       1
     5    4    5       1
     6    5    6       1
     7    6    7       1
     8    6    8       1
     9    7   12       1
    10    8    9       1
    11    8   10       1
    12   10   11       1
    13   10   12       1
    14   12   13       1
    15   13   14       1
    16   13   22       1
    17   14   15       2
    18   15   16       1
    19   16   17      ar
    20   16   22      ar
    21   17   18       1
    22   17   19      ar
    23   19   20      ar
    24   20   21      ar
    25   21   22      ar
    26   23   24       1
    27   24   25      ar
    28   24   26      ar
    29   24   27       1
    30   27   28       1
    31   28   29       1
    32   29   30       1
    33   29   31       1
    34   30   35       1
    35   31   32       1
    36   31   33       1
    37   33   34       1
    38   33   35       1
    39   35   36       1
    40   36   37      ar
    41   36   44      ar
    42   37   38      ar
    43   38   39       1
    44   38   42      ar
    45   39   40       2
    46   39   41      am
    47   42   43      ar
    48   43   44      ar
    49   44   70       1
    50    5   45       1
    51    5   46       1
    52    6   47       1
    53    8   48       1
    54    9   49       1
    55   10   50       1
    56   11   51       1
    57   12   52       1
    58   14   53       1
    59   18   54       1
    60   18   55       1
    61   20   56       1
    62   43   69       1
    63   28   57       1
    64   28   58       1
    65   29   59       1
    66   31   60       1
    67   32   61       1
    68   33   62       1
    69   34   63       1
    70   35   64       1
    71   37   65       1
    72   41   66       1
    73   41   67       1
    74   42   68       1
@<TRIPOS>SUBSTRUCTURE
     1 NAD1300     1 GROUP             4 A     NAD     0 **** NAD A1300
