@<TRIPOS>MOLECULE
4blv_SAM_2_ligand
   50    52     1     0     0
SMALL
NO_CHARGES


@<TRIPOS>ATOM
     1 N           32.6120   -34.1980    37.7060 N.4          1 SAM1281   1.0000
     2 CA          31.4690   -34.6760    37.0000 C.3          1 SAM1281   0.0000
     3 C           30.3990   -33.6070    36.9510 C.2          1 SAM1281   0.0000
     4 O           30.3970   -32.7260    37.7240 O.co2        1 SAM1281   0.0000
     5 OXT         29.5490   -33.6610    36.1680 O.co2        1 SAM1281  -1.0000
     6 CB          30.8540   -35.9730    37.5600 C.3          1 SAM1281   0.0000
     7 CG          31.7160   -36.8240    38.4830 C.3          1 SAM1281   0.0000
     8 SD          31.0140   -38.2880    38.8300 S.3          1 SAM1281   1.0000
     9 CE          29.8090   -38.1590    39.8300 C.3          1 SAM1281   0.0000
    10 C5'         32.2860   -39.2900    39.2980 C.3          1 SAM1281   0.0000
    11 C4'         32.9450   -39.8490    38.0130 C.3          1 SAM1281   0.0000
    12 O4'         34.2740   -40.3540    38.0310 O.3          1 SAM1281   0.0000
    13 C3'         32.1240   -40.9430    37.3540 C.3          1 SAM1281   0.0000
    14 O3'         31.7340   -40.5910    36.0610 O.3          1 SAM1281   0.0000
    15 C2'         33.0570   -42.1730    37.3290 C.3          1 SAM1281   0.0000
    16 O2'         32.8230   -43.0720    36.3050 O.3          1 SAM1281   0.0000
    17 C1'         34.4150   -41.5540    37.2900 C.3          1 SAM1281   0.0000
    18 N9          35.4840   -42.3820    37.9080 N.pl3        1 SAM1281   0.0000
    19 C8          35.3890   -43.3130    38.8250 C.2          1 SAM1281   0.0000
    20 N7          36.5890   -43.7510    39.1350 N.2          1 SAM1281   0.0000
    21 C5          37.4950   -43.1170    38.4520 C.ar         1 SAM1281   0.0000
    22 C6          38.9790   -43.1000    38.3440 C.ar         1 SAM1281   0.0000
    23 N6          39.7740   -43.8980    39.0590 N.pl3        1 SAM1281   0.0000
    24 N1          39.4850   -42.2460    37.4760 N.ar         1 SAM1281   0.0000
    25 C2          38.7320   -41.4010    36.7730 C.ar         1 SAM1281   0.0000
    26 N3          37.3780   -41.3610    36.8080 N.ar         1 SAM1281   0.0000
    27 C4          36.7440   -42.1680    37.6410 C.ar         1 SAM1281   0.0000
    28 H1          33.3110   -34.9127    37.7314 H            1 SAM1281   0.0000
    29 H2          32.9771   -33.3910    37.2418 H            1 SAM1281   0.0000
    30 HA          31.7527   -34.8602    36.0589 H            1 SAM1281   0.0000
    31 HB1         30.5986   -36.5437    36.7796 H            1 SAM1281   0.0000
    32 HB2         30.0322   -35.7181    38.0697 H            1 SAM1281   0.0000
    33 HG1         31.8601   -36.3259    39.3381 H            1 SAM1281   0.0000
    34 HG2         32.5974   -36.9872    38.0397 H            1 SAM1281   0.0000
    35 HE1         29.4230   -39.0647    40.0054 H            1 SAM1281   0.0000
    36 HE2         30.1302   -37.7614    40.6895 H            1 SAM1281   0.0000
    37 HE3         29.1069   -37.5689    39.4316 H            1 SAM1281   0.0000
    38 H5'1        31.9383   -40.0426    39.8571 H            1 SAM1281   0.0000
    39 H5'2        32.9561   -38.7661    39.8238 H            1 SAM1281   0.0000
    40 H4'         32.9539   -39.0897    37.3624 H            1 SAM1281   0.0000
    41 H3'         31.3164   -41.1416    37.9092 H            1 SAM1281   0.0000
    42 H15         32.5460   -40.4274    35.5008 H            1 SAM1281   0.0000
    43 H2'         32.9591   -42.6572    38.1984 H            1 SAM1281   0.0000
    44 H17         33.3710   -42.8191    35.5077 H            1 SAM1281   0.0000
    45 H1'         34.6599   -41.3390    36.3446 H            1 SAM1281   0.0000
    46 H19         34.5342   -43.6404    39.2276 H            1 SAM1281   0.0000
    47 H20         40.7664   -43.8454    38.9473 H            1 SAM1281   0.0000
    48 H21         39.3775   -44.5487    39.7066 H            1 SAM1281   0.0000
    49 H22         39.2000   -40.7491    36.1763 H            1 SAM1281   0.0000
    50 H23         32.3495   -33.9551    38.6399 H            1 SAM1281   0.0000
@<TRIPOS>BOND
     1    1    2       1
     2    2    3       1
     3    2    6       1
     4    3    4      ar
     5    3    5      ar
     6    6    7       1
     7    7    8       1
     8    8    9       1
     9    8   10       1
    10   10   11       1
    11   11   12       1
    12   11   13       1
    13   12   17       1
    14   13   14       1
    15   13   15       1
    16   15   16       1
    17   15   17       1
    18   17   18       1
    19   18   19       1
    20   18   27       1
    21   19   20       2
    22   20   21       1
    23   21   22      ar
    24   21   27      ar
    25   22   23       1
    26   22   24      ar
    27   24   25      ar
    28   25   26      ar
    29   26   27      ar
    30    1   28       1
    31    1   29       1
    32    2   30       1
    33    1   50       1
    34    6   31       1
    35    6   32       1
    36    7   33       1
    37    7   34       1
    38    9   35       1
    39    9   36       1
    40    9   37       1
    41   10   38       1
    42   10   39       1
    43   11   40       1
    44   13   41       1
    45   14   42       1
    46   15   43       1
    47   16   44       1
    48   17   45       1
    49   19   46       1
    50   23   47       1
    51   23   48       1
    52   25   49       1
@<TRIPOS>SUBSTRUCTURE
     1 SAM1281     1 GROUP             4 B     SAM     0 **** SAM B1281
