@<TRIPOS>MOLECULE
5d4u_SAM_1_ligand
   50    52     1     0     0
SMALL
NO_CHARGES


@<TRIPOS>ATOM
     1 N           -2.8770    12.0110    33.7910 N.4          1 SAM301   1.0000
     2 CA          -3.4750    12.5600    32.5780 C.3          1 SAM301   0.0000
     3 C           -3.4370    11.5860    31.4070 C.2          1 SAM301   0.0000
     4 O           -2.8000    10.5340    31.4650 O.co2        1 SAM301   0.0000
     5 OXT         -4.0530    11.8400    30.3720 O.co2        1 SAM301  -1.0000
     6 CB          -2.8190    13.8740    32.1710 C.3          1 SAM301   0.0000
     7 CG          -2.2980    14.7290    33.3170 C.3          1 SAM301   0.0000
     8 SD          -2.2440    16.4770    32.8480 S.3          1 SAM301   1.0000
     9 CE          -0.4670    16.7940    32.9780 C.3          1 SAM301   0.0000
    10 C5'         -2.8490    17.2520    34.3680 C.3          1 SAM301   0.0000
    11 C4'         -4.2570    17.8300    34.2860 C.3          1 SAM301   0.0000
    12 O4'         -4.7010    18.0410    35.6100 O.3          1 SAM301   0.0000
    13 C3'         -4.2800    19.1810    33.5950 C.3          1 SAM301   0.0000
    14 O3'         -5.4990    19.3350    32.9070 O.3          1 SAM301   0.0000
    15 C2'         -4.2440    20.1810    34.7270 C.3          1 SAM301   0.0000
    16 O2'         -4.9940    21.3300    34.4100 O.3          1 SAM301   0.0000
    17 C1'         -4.8730    19.4190    35.8790 C.3          1 SAM301   0.0000
    18 N9          -4.2410    19.7520    37.1660 N.pl3        1 SAM301   0.0000
    19 C8          -2.9140    20.0050    37.3920 C.2          1 SAM301   0.0000
    20 N7          -2.7480    20.2640    38.7100 N.2          1 SAM301   0.0000
    21 C5          -3.9500    20.1790    39.3240 C.ar         1 SAM301   0.0000
    22 C6          -4.3440    20.3480    40.6440 C.ar         1 SAM301   0.0000
    23 N6          -3.4480    20.6570    41.5760 N.pl3        1 SAM301   0.0000
    24 N1          -5.6730    20.1920    40.9840 N.ar         1 SAM301   0.0000
    25 C2          -6.6010    19.8720    40.0130 C.ar         1 SAM301   0.0000
    26 N3          -6.2010    19.7050    38.7020 N.ar         1 SAM301   0.0000
    27 C4          -4.8980    19.8570    38.3640 C.ar         1 SAM301   0.0000
    28 H1          -1.9012    12.2289    33.8097 H            1 SAM301   0.0000
    29 H2          -3.3230    12.4096    34.5924 H            1 SAM301   0.0000
    30 HA          -4.4358    12.7529    32.7774 H            1 SAM301   0.0000
    31 HB1         -3.4945    14.4125    31.6673 H            1 SAM301   0.0000
    32 HB2         -2.0482    13.6605    31.5708 H            1 SAM301   0.0000
    33 HG1         -1.3759    14.4263    33.5582 H            1 SAM301   0.0000
    34 HG2         -2.9017    14.6206    34.1068 H            1 SAM301   0.0000
    35 HE1         -0.2803    17.7475    32.7413 H            1 SAM301   0.0000
    36 HE2         -0.1646    16.6177    33.9147 H            1 SAM301   0.0000
    37 HE3          0.0258    16.1920    32.3498 H            1 SAM301   0.0000
    38 H5'1        -2.2232    17.9945    34.6069 H            1 SAM301   0.0000
    39 H5'2        -2.8395    16.5622    35.0919 H            1 SAM301   0.0000
    40 H4'         -4.8656    17.1911    33.8154 H            1 SAM301   0.0000
    41 H3'         -3.4973    19.2926    32.9827 H            1 SAM301   0.0000
    42 H15         -6.1726    19.7581    33.5130 H            1 SAM301   0.0000
    43 H2'         -3.3000    20.4286    34.9452 H            1 SAM301   0.0000
    44 H17         -5.9394    21.2044    34.7106 H            1 SAM301   0.0000
    45 H1'         -5.8495    19.6299    35.9235 H            1 SAM301   0.0000
    46 H19         -2.1911    19.9993    36.7010 H            1 SAM301   0.0000
    47 H20         -3.7360    20.7779    42.5260 H            1 SAM301   0.0000
    48 H21         -2.4859    20.7686    41.3272 H            1 SAM301   0.0000
    49 H22         -7.5638    19.7611    40.2595 H            1 SAM301   0.0000
    50 H23         -2.9971    11.0183    33.8020 H            1 SAM301   0.0000
@<TRIPOS>BOND
     1    1    2       1
     2    2    3       1
     3    2    6       1
     4    3    4      ar
     5    3    5      ar
     6    6    7       1
     7    7    8       1
     8    8    9       1
     9    8   10       1
    10   10   11       1
    11   11   12       1
    12   11   13       1
    13   12   17       1
    14   13   14       1
    15   13   15       1
    16   15   16       1
    17   15   17       1
    18   17   18       1
    19   18   19       1
    20   18   27       1
    21   19   20       2
    22   20   21       1
    23   21   22      ar
    24   21   27      ar
    25   22   23       1
    26   22   24      ar
    27   24   25      ar
    28   25   26      ar
    29   26   27      ar
    30    1   28       1
    31    1   29       1
    32    2   30       1
    33    1   50       1
    34    6   31       1
    35    6   32       1
    36    7   33       1
    37    7   34       1
    38    9   35       1
    39    9   36       1
    40    9   37       1
    41   10   38       1
    42   10   39       1
    43   11   40       1
    44   13   41       1
    45   14   42       1
    46   15   43       1
    47   16   44       1
    48   17   45       1
    49   19   46       1
    50   23   47       1
    51   23   48       1
    52   25   49       1
@<TRIPOS>SUBSTRUCTURE
     1 SAM301      1 GROUP             4 A     SAM     0 **** SAM A 301
