@<TRIPOS>MOLECULE
2y4s_BCD_1_ligand
  147   154     1     0     0
SMALL
NO_CHARGES


@<TRIPOS>ATOM
     1 C11         48.9330    31.4980    34.9780 C.3          1 BCD1895   0.0000
     2 C21         50.2660    30.9770    34.4760 C.3          1 BCD1895   0.0000
     3 O21         51.3430    31.3450    35.3220 O.3          1 BCD1895   0.0000
     4 C31         50.5800    31.5310    33.1150 C.3          1 BCD1895   0.0000
     5 O31         51.6820    30.7870    32.7220 O.3          1 BCD1895   0.0000
     6 C41         49.4470    31.4130    32.1160 C.3          1 BCD1895   0.0000
     7 O41         49.8910    32.1870    31.0140 O.3          1 BCD1895   0.0000
     8 C51         48.2370    32.0470    32.7590 C.3          1 BCD1895   0.0000
     9 O51         47.9440    31.3600    33.9560 O.3          1 BCD1895   0.0000
    10 C61         47.0190    31.9230    31.8890 C.3          1 BCD1895   0.0000
    11 O61         47.0080    32.9670    30.9210 O.3          1 BCD1895   0.0000
    12 C12         49.4640    31.8580    29.7190 C.3          1 BCD1895   0.0000
    13 C22         50.6910    31.7870    28.8630 C.3          1 BCD1895   0.0000
    14 O22         51.6690    31.0790    29.6060 O.3          1 BCD1895   0.0000
    15 C32         51.2450    33.1640    28.5660 C.3          1 BCD1895   0.0000
    16 O32         52.3170    33.0670    27.6450 O.3          1 BCD1895   0.0000
    17 C42         50.1660    34.0980    28.0720 C.3          1 BCD1895   0.0000
    18 O42         50.6600    35.4070    28.1070 O.3          1 BCD1895   0.0000
    19 C52         49.0440    34.1070    29.0740 C.3          1 BCD1895   0.0000
    20 O52         48.5640    32.8150    29.2380 O.3          1 BCD1895   0.0000
    21 C62         47.9950    35.0320    28.5240 C.3          1 BCD1895   0.0000
    22 O62         46.6700    34.6990    28.9140 O.3          1 BCD1895   0.0000
    23 C13         50.2390    36.2490    27.0830 C.3          1 BCD1895   0.0000
    24 C23         51.5330    36.9320    26.7650 C.3          1 BCD1895   0.0000
    25 O23         52.4780    35.8660    26.7770 O.3          1 BCD1895   0.0000
    26 C33         51.8840    37.9690    27.8030 C.3          1 BCD1895   0.0000
    27 O33         53.0920    38.5930    27.4600 O.3          1 BCD1895   0.0000
    28 C43         50.7640    38.9830    27.9380 C.3          1 BCD1895   0.0000
    29 O43         51.0570    39.8700    29.0060 O.3          1 BCD1895   0.0000
    30 C53         49.4760    38.2060    28.2660 C.3          1 BCD1895   0.0000
    31 O53         49.1790    37.1160    27.4040 O.3          1 BCD1895   0.0000
    32 C63         48.2650    39.1000    28.2940 C.3          1 BCD1895   0.0000
    33 O63         48.2720    39.8900    27.1250 O.3          1 BCD1895   0.0000
    34 C14         51.0950    41.2950    28.8190 C.3          1 BCD1895   0.0000
    35 C24         52.2370    41.9690    29.5570 C.3          1 BCD1895   0.0000
    36 O24         53.4880    41.4910    29.0940 O.3          1 BCD1895   0.0000
    37 C34         52.1060    41.7410    31.0570 C.3          1 BCD1895   0.0000
    38 O34         53.2570    42.1970    31.7390 O.3          1 BCD1895   0.0000
    39 C44         50.7980    42.3190    31.5660 C.3          1 BCD1895   0.0000
    40 O44         50.6220    41.8510    32.8860 O.3          1 BCD1895   0.0000
    41 C54         49.6430    41.8290    30.6660 C.3          1 BCD1895   0.0000
    42 O54         49.9340    41.9330    29.3130 O.3          1 BCD1895   0.0000
    43 C64         48.3890    42.6270    30.8590 C.3          1 BCD1895   0.0000
    44 O64         47.4510    41.8090    31.5500 O.3          1 BCD1895   0.0000
    45 C15         50.2340    42.8370    33.8500 C.3          1 BCD1895   0.0000
    46 C25         51.1390    42.9190    35.0560 C.3          1 BCD1895   0.0000
    47 O25         52.4430    43.2350    34.6960 O.3          1 BCD1895   0.0000
    48 C35         51.0910    41.6640    35.8740 C.3          1 BCD1895   0.0000
    49 O35         51.9510    41.8010    36.9820 O.3          1 BCD1895   0.0000
    50 C45         49.6330    41.4310    36.2550 C.3          1 BCD1895   0.0000
    51 O45         49.5650    40.1740    36.8390 O.3          1 BCD1895   0.0000
    52 C55         48.7750    41.4330    35.0110 C.3          1 BCD1895   0.0000
    53 O55         48.9290    42.6390    34.3090 O.3          1 BCD1895   0.0000
    54 C65         47.2790    41.1970    35.2440 C.3          1 BCD1895   0.0000
    55 O65         46.6480    41.6970    34.0920 O.3          1 BCD1895   0.0000
    56 C16         49.5760    40.1740    38.2580 C.3          1 BCD1895   0.0000
    57 C26         50.6050    39.2330    38.8410 C.3          1 BCD1895   0.0000
    58 O26         51.8370    39.7520    38.4660 O.3          1 BCD1895   0.0000
    59 C36         50.4350    37.8380    38.3010 C.3          1 BCD1895   0.0000
    60 O36         51.3880    36.9420    38.8060 O.3          1 BCD1895   0.0000
    61 C46         49.0560    37.3430    38.6940 C.3          1 BCD1895   0.0000
    62 O46         48.7220    36.2070    37.9530 O.3          1 BCD1895   0.0000
    63 C56         47.9720    38.3860    38.3960 C.3          1 BCD1895   0.0000
    64 O56         48.3350    39.7110    38.7360 O.3          1 BCD1895   0.0000
    65 C66         46.7540    38.0570    39.2570 C.3          1 BCD1895   0.0000
    66 O66         45.6930    38.6920    38.6160 O.3          1 BCD1895   0.0000
    67 C17         48.2590    35.1110    38.7140 C.3          1 BCD1895   0.0000
    68 C27         49.2780    34.0010    38.9240 C.3          1 BCD1895   0.0000
    69 O27         50.4640    34.4310    39.6010 O.3          1 BCD1895   0.0000
    70 C37         49.7170    33.3490    37.6420 C.3          1 BCD1895   0.0000
    71 O37         50.4890    32.2080    37.9770 O.3          1 BCD1895   0.0000
    72 C47         48.5400    33.0000    36.7380 C.3          1 BCD1895   0.0000
    73 O47         49.0610    32.8520    35.4280 O.3          1 BCD1895   0.0000
    74 C57         47.4620    34.0860    36.7160 C.3          1 BCD1895   0.0000
    75 O57         47.1600    34.5560    38.0110 O.3          1 BCD1895   0.0000
    76 C67         46.1520    33.6250    36.0870 C.3          1 BCD1895   0.0000
    77 O67         46.2940    33.0510    34.7910 O.3          1 BCD1895   0.0000
    78 H1          48.6542    30.9370    35.7574 H            1 BCD1895   0.0000
    79 H2          50.2241    29.9795    34.4188 H            1 BCD1895   0.0000
    80 H3          51.0148    31.4267    36.2631 H            1 BCD1895   0.0000
    81 H4          50.8443    32.4915    33.2025 H            1 BCD1895   0.0000
    82 H5          51.6865    30.6986    31.7259 H            1 BCD1895   0.0000
    83 H6          49.2759    30.4621    31.8580 H            1 BCD1895   0.0000
    84 H7          48.4200    33.0105    32.9546 H            1 BCD1895   0.0000
    85 H8          46.1981    31.9879    32.4563 H            1 BCD1895   0.0000
    86 H9          47.0329    31.0384    31.4228 H            1 BCD1895   0.0000
    87 H10         47.8280    32.9029    30.3522 H            1 BCD1895   0.0000
    88 H11         49.0187    30.9628    29.7345 H            1 BCD1895   0.0000
    89 H12         50.4895    31.3049    28.0104 H            1 BCD1895   0.0000
    90 H13         52.4688    31.6629    29.7457 H            1 BCD1895   0.0000
    91 H14         51.6074    33.5389    29.4193 H            1 BCD1895   0.0000
    92 H15         53.1762    32.9544    28.1442 H            1 BCD1895   0.0000
    93 H16         49.8462    33.8460    27.1586 H            1 BCD1895   0.0000
    94 H17         49.3766    34.4569    29.9497 H            1 BCD1895   0.0000
    95 H18         48.0450    35.0061    27.5256 H            1 BCD1895   0.0000
    96 H19         48.1936    35.9584    28.8438 H            1 BCD1895   0.0000
    97 H20         46.6872    34.2607    29.8127 H            1 BCD1895   0.0000
    98 H21         49.9700    35.6903    26.2985 H            1 BCD1895   0.0000
    99 H22         51.4916    37.3493    25.8572 H            1 BCD1895   0.0000
   100 H23         52.0098    35.0078    26.9874 H            1 BCD1895   0.0000
   101 H24         52.0033    37.5092    28.6830 H            1 BCD1895   0.0000
   102 H25         53.0908    39.5326    27.8024 H            1 BCD1895   0.0000
   103 H26         50.6534    39.4927    27.0848 H            1 BCD1895   0.0000
   104 H27         49.5856    37.8310    29.1865 H            1 BCD1895   0.0000
   105 H28         48.2983    39.6896    29.1010 H            1 BCD1895   0.0000
   106 H29         47.4344    38.5438    28.3215 H            1 BCD1895   0.0000
   107 H30         48.7724    40.7382    27.2989 H            1 BCD1895   0.0000
   108 H31         51.1809    41.4909    27.8421 H            1 BCD1895   0.0000
   109 H32         52.1899    42.9524    29.3816 H            1 BCD1895   0.0000
   110 H33         53.9869    41.0732    29.8533 H            1 BCD1895   0.0000
   111 H34         52.0594    40.7519    31.1967 H            1 BCD1895   0.0000
   112 H35         53.0024    42.4987    32.6578 H            1 BCD1895   0.0000
   113 H36         50.8385    43.3182    31.5587 H            1 BCD1895   0.0000
   114 H37         49.4514    40.8714    30.8812 H            1 BCD1895   0.0000
   115 H38         48.0165    42.8945    29.9704 H            1 BCD1895   0.0000
   116 H39         48.5871    43.4459    31.3976 H            1 BCD1895   0.0000
   117 H40         47.5608    41.9358    32.5358 H            1 BCD1895   0.0000
   118 H41         50.2597    43.7272    33.3951 H            1 BCD1895   0.0000
   119 H42         50.8006    43.6630    35.6321 H            1 BCD1895   0.0000
   120 H43         52.5574    44.2284    34.6962 H            1 BCD1895   0.0000
   121 H44         51.4055    40.8988    35.3123 H            1 BCD1895   0.0000
   122 H45         51.9226    40.9658    37.5313 H            1 BCD1895   0.0000
   123 H46         49.3220    42.1325    36.8962 H            1 BCD1895   0.0000
   124 H47         49.1051    40.6979    34.4188 H            1 BCD1895   0.0000
   125 H48         46.9679    41.6894    36.0569 H            1 BCD1895   0.0000
   126 H49         47.0899    40.2211    35.3528 H            1 BCD1895   0.0000
   127 H50         45.8065    41.1837    33.9234 H            1 BCD1895   0.0000
   128 H51         49.7406    41.1017    38.5931 H            1 BCD1895   0.0000
   129 H52         50.5298    39.2229    39.8381 H            1 BCD1895   0.0000
   130 H53         52.3702    39.9690    39.2837 H            1 BCD1895   0.0000
   131 H54         50.5031    37.8617    37.3036 H            1 BCD1895   0.0000
   132 H55         52.2345    37.4346    39.0079 H            1 BCD1895   0.0000
   133 H56         49.0464    37.1205    39.6689 H            1 BCD1895   0.0000
   134 H57         47.7214    38.3437    37.4288 H            1 BCD1895   0.0000
   135 H58         46.8703    38.4121    40.1846 H            1 BCD1895   0.0000
   136 H59         46.6041    37.0690    39.2947 H            1 BCD1895   0.0000
   137 H60         44.8480    38.5233    39.1234 H            1 BCD1895   0.0000
   138 H61         47.9453    35.4401    39.6047 H            1 BCD1895   0.0000
   139 H62         48.8463    33.2974    39.4884 H            1 BCD1895   0.0000
   140 H63         50.6381    35.3929    39.3901 H            1 BCD1895   0.0000
   141 H64         50.3065    33.9911    37.1519 H            1 BCD1895   0.0000
   142 H65         51.4515    32.4678    38.0546 H            1 BCD1895   0.0000
   143 H66         48.1359    32.1351    37.0358 H            1 BCD1895   0.0000
   144 H67         47.8088    34.8558    36.1802 H            1 BCD1895   0.0000
   145 H68         45.5441    34.4157    36.0144 H            1 BCD1895   0.0000
   146 H69         45.7392    32.9413    36.6888 H            1 BCD1895   0.0000
   147 H70         47.1901    32.6134    34.7166 H            1 BCD1895   0.0000
@<TRIPOS>BOND
     1    1    2       1
     2    1    9       1
     3    1   73       1
     4    2    3       1
     5    2    4       1
     6    4    5       1
     7    4    6       1
     8    6    7       1
     9    6    8       1
    10    7   12       1
    11    8    9       1
    12    8   10       1
    13   10   11       1
    14   12   13       1
    15   12   20       1
    16   13   14       1
    17   13   15       1
    18   15   16       1
    19   15   17       1
    20   17   18       1
    21   17   19       1
    22   18   23       1
    23   19   20       1
    24   19   21       1
    25   21   22       1
    26   23   24       1
    27   23   31       1
    28   24   25       1
    29   24   26       1
    30   26   27       1
    31   26   28       1
    32   28   29       1
    33   28   30       1
    34   29   34       1
    35   30   31       1
    36   30   32       1
    37   32   33       1
    38   34   35       1
    39   34   42       1
    40   35   36       1
    41   35   37       1
    42   37   38       1
    43   37   39       1
    44   39   40       1
    45   39   41       1
    46   40   45       1
    47   41   42       1
    48   41   43       1
    49   43   44       1
    50   45   46       1
    51   45   53       1
    52   46   47       1
    53   46   48       1
    54   48   49       1
    55   48   50       1
    56   50   51       1
    57   50   52       1
    58   51   56       1
    59   52   53       1
    60   52   54       1
    61   54   55       1
    62   56   57       1
    63   56   64       1
    64   57   58       1
    65   57   59       1
    66   59   60       1
    67   59   61       1
    68   61   62       1
    69   61   63       1
    70   62   67       1
    71   63   64       1
    72   63   65       1
    73   65   66       1
    74   67   68       1
    75   67   75       1
    76   68   69       1
    77   68   70       1
    78   70   71       1
    79   70   72       1
    80   72   73       1
    81   72   74       1
    82   74   75       1
    83   74   76       1
    84   76   77       1
    85    1   78       1
    86    2   79       1
    87    3   80       1
    88    4   81       1
    89    5   82       1
    90    6   83       1
    91    8   84       1
    92   10   85       1
    93   10   86       1
    94   11   87       1
    95   12   88       1
    96   13   89       1
    97   14   90       1
    98   15   91       1
    99   16   92       1
   100   17   93       1
   101   19   94       1
   102   21   95       1
   103   21   96       1
   104   22   97       1
   105   23   98       1
   106   24   99       1
   107   25  100       1
   108   26  101       1
   109   27  102       1
   110   28  103       1
   111   30  104       1
   112   32  105       1
   113   32  106       1
   114   33  107       1
   115   34  108       1
   116   35  109       1
   117   36  110       1
   118   37  111       1
   119   38  112       1
   120   39  113       1
   121   41  114       1
   122   43  115       1
   123   43  116       1
   124   44  117       1
   125   45  118       1
   126   46  119       1
   127   47  120       1
   128   48  121       1
   129   49  122       1
   130   50  123       1
   131   52  124       1
   132   54  125       1
   133   54  126       1
   134   55  127       1
   135   56  128       1
   136   57  129       1
   137   58  130       1
   138   59  131       1
   139   60  132       1
   140   61  133       1
   141   63  134       1
   142   65  135       1
   143   65  136       1
   144   66  137       1
   145   67  138       1
   146   68  139       1
   147   69  140       1
   148   70  141       1
   149   71  142       1
   150   72  143       1
   151   74  144       1
   152   76  145       1
   153   76  146       1
   154   77  147       1
@<TRIPOS>SUBSTRUCTURE
     1 BCD1895     1 GROUP             4 A     BCD     0 **** BCD A1895
