@<TRIPOS>MOLECULE
./coach420/1kv2/ligand.pdb
 39 43 0 0 0
SMALL
GASTEIGER

@<TRIPOS>ATOM
      1  C1        32.8500   33.9990   15.3520 C.2   391  B96391      0.3491
      2  O1        31.9630   34.5370   16.0310 O.2   391  B96391     -0.2484
      3  N2        34.0770   33.8920   15.8400 N.am  391  B96391     -0.1606
      4  C3        34.4030   34.4490   16.9930 C.ar  391  B96391      0.0751
      5  C4        35.4970   35.2570   16.9940 C.ar  391  B96391      0.0183
      6  C5        35.9010   35.8800   18.1430 C.ar  391  B96391      0.0352
      7  C6        35.1810   35.6970   19.2810 C.ar  391  B96391      0.1386
      8  C31       36.2220   35.4440   15.8200 C.ar  391  B96391      0.0014
      9  C32       37.3710   36.2710   15.8060 C.ar  391  B96391      0.0000
     10  C33       37.7830   36.8970   16.9510 C.ar  391  B96391      0.0001
     11  C34       37.0550   36.7140   18.1170 C.ar  391  B96391      0.0031
     12  C7        34.0700   34.8730   19.2770 C.ar  391  B96391      0.0382
     13  C8        33.6800   34.2450   18.0870 C.ar  391  B96391      0.0198
     14  N9        32.6030   33.4680   14.1560 N.am  391  B96391     -0.1418
     15  C10       31.4490   33.4970   13.4860 C.ar  391  B96391      0.1587
     16  C14       30.6230   34.5430   13.3720 C.ar  391  B96391      0.0527
     17  C13       29.6480   34.1840   12.5140 C.ar  391  B96391      0.0811
     18  N12       29.8430   32.9430   12.0960 N.ar  391  B96391     -0.1683
     19  N11       31.0020   32.5220   12.7310 N.ar  391  B96391     -0.2145
     20  C15       31.5890   31.3350   12.5550 C.ar  391  B96391      0.0842
     21  C17       27.9030   35.6540   13.3180 C.3   391  B96391      0.0060
     22  C18       27.5700   34.2410   11.3750 C.3   391  B96391      0.0060
     23  C19       29.0900   36.1090   11.2190 C.3   391  B96391      0.0060
     24  C16       28.6570   34.9690   12.1470 C.3   391  B96391      0.0372
     25  C20       31.7510   30.9020   11.3070 C.ar  391  B96391      0.0189
     26  C21       32.3860   29.7130   11.0460 C.ar  391  B96391     -0.0027
     27  C22       32.8550   28.9620   12.0800 C.ar  391  B96391     -0.0218
     28  C23       32.6890   29.3990   13.3870 C.ar  391  B96391     -0.0027
     29  C24       32.0420   30.6080   13.6170 C.ar  391  B96391      0.0189
     30  C25       33.5550   27.6910   11.7990 C.3   391  B96391      0.0310
     31  O41       35.5610   36.3180   20.3550 O.3   391  B96391     -0.4740
     32  C42       34.8700   35.9700   21.5440 C.3   391  B96391      0.2226
     33  C43       35.2040   37.0260   22.6080 C.3   391  B96391      0.1202
     34  N44       34.1660   38.0790   22.8130 N.3   391  B96391     -0.2653
     35  C45       34.0940   38.8980   21.6080 C.3   391  B96391      0.1047
     36  C46       33.8330   40.3930   21.8460 C.3   391  B96391      0.1595
     37  O47       34.7250   40.9080   22.8030 O.3   391  B96391     -0.3508
     38  C48       34.3530   40.3450   24.0060 C.3   391  B96391      0.1595
     39  C49       34.6010   38.8440   23.9970 C.3   391  B96391      0.1047
@<TRIPOS>BOND
     1     1    14   am
     2     1     3   am
     3     1     2    2
     4     3     4    1
     5     4     5   ar
     6     4    13   ar
     7     5     8   ar
     8     5     6   ar
     9     6    11   ar
    10     6     7   ar
    11     7    12   ar
    12     7    31    1
    13     8     9   ar
    14     9    10   ar
    15    10    11   ar
    16    12    13   ar
    17    14    15    1
    18    15    19   ar
    19    15    16   ar
    20    16    17   ar
    21    17    18   ar
    22    17    24    1
    23    18    19   ar
    24    19    20    1
    25    20    25   ar
    26    20    29   ar
    27    21    24    1
    28    22    24    1
    29    23    24    1
    30    25    26   ar
    31    26    27   ar
    32    27    30    1
    33    27    28   ar
    34    28    29   ar
    35    31    32    1
    36    32    33    1
    37    33    34    1
    38    34    35    1
    39    34    39    1
    40    35    36    1
    41    36    37    1
    42    37    38    1
    43    38    39    1
