@<TRIPOS>MOLECULE
2hb7_O1C_1_ligand
   84    86     1     0     0
SMALL
NO_CHARGES


@<TRIPOS>ATOM
     1 C5          14.4930    19.2840    33.8150 C.2          1 O1C1001   0.0000
     2 C10         13.4410    18.7110    34.7900 C.2          1 O1C1001   0.0000
     3 C1          14.0730    17.6960    35.8140 C.3          1 O1C1001   0.0000
     4 C2          14.8400    16.5060    35.0630 C.3          1 O1C1001   0.0000
     5 C3          15.9170    17.1270    34.0470 C.3          1 O1C1001   0.0000
     6 C4          15.2750    18.2000    33.0740 C.3          1 O1C1001   0.0000
     7 C6          14.7700    20.5850    33.5750 C.2          1 O1C1001   0.0000
     8 C7          14.1330    21.7450    34.1820 C.2          1 O1C1001   0.0000
     9 C8          13.8450    22.9190    33.6270 C.2          1 O1C1001   0.0000
    10 C14         13.1510    24.0590    34.3700 C.3          1 O1C1001   0.0000
    11 C13         11.7260    24.4310    33.6840 C.3          1 O1C1001   0.0000
    12 C12         12.0260    24.8460    32.1680 C.3          1 O1C1001   0.0000
    13 C11         12.9640    23.8880    31.3570 C.3          1 O1C1001   0.0000
    14 C9          14.1590    23.2610    32.1500 C.3          1 O1C1001   0.0000
    15 C15         12.7250    23.8900    35.8980 C.3          1 O1C1001   0.0000
    16 C16         11.5180    24.8700    36.0900 C.3          1 O1C1001   0.0000
    17 C17         11.3220    25.5740    34.6970 C.3          1 O1C1001   0.0000
    18 C19         12.0940    19.0120    34.7560 C.2          1 O1C1001   0.0000
    19 O2          16.9470    17.7700    34.7820 O.3          1 O1C1001   0.0000
    20 O1          13.1000    17.1420    36.6560 O.3          1 O1C1001   0.0000
    21 C20          9.8580    26.2420    34.5420 C.3          1 O1C1001   0.0000
    22 C22          8.5950    25.4620    35.0540 C.3          1 O1C1001   0.0000
    23 C18         10.7230    23.1810    33.6070 C.3          1 O1C1001   0.0000
    24 C21          9.8150    27.6420    35.2310 C.3          1 O1C1001   0.0000
    25 C23          7.3920    25.6380    34.0970 C.3          1 O1C1001   0.0000
    26 C24          6.1590    24.7910    34.4630 C.3          1 O1C1001   0.0000
    27 C25          4.7290    25.3680    34.1090 C.3          1 O1C1001   0.0000
    28 O25          4.4790    26.5560    34.8420 O.3          1 O1C1001   0.0000
    29 C27          3.6270    24.3300    34.4790 C.3          1 O1C1001   0.0000
    30 C26          4.6060    25.6710    32.5760 C.3          1 O1C1001   0.0000
    31 C28         13.8650    15.5330    34.2500 C.3          1 O1C1001   0.0000
    32 C29         14.5000    14.2340    33.6840 C.3          1 O1C1001   0.0000
    33 C30         14.9760    13.2490    34.7920 C.3          1 O1C1001   0.0000
    34 O31         13.9370    12.8050    35.6190 O.3          1 O1C1001   0.0000
    35 H1          14.7342    18.1895    36.3790 H            1 O1C1001   0.0000
    36 H2          15.3279    15.9639    35.7472 H            1 O1C1001   0.0000
    37 H3          16.3158    16.3892    33.5024 H            1 O1C1001   0.0000
    38 H4          16.0080    18.6361    32.5520 H            1 O1C1001   0.0000
    39 H5          14.6533    17.7304    32.4472 H            1 O1C1001   0.0000
    40 H6          15.4912    20.7711    32.9077 H            1 O1C1001   0.0000
    41 H7          13.8782    21.6460    35.1439 H            1 O1C1001   0.0000
    42 H8          13.7387    24.8655    34.3059 H            1 O1C1001   0.0000
    43 H9          12.4510    25.7511    32.1786 H            1 O1C1001   0.0000
    44 H10         11.1508    24.8944    31.6867 H            1 O1C1001   0.0000
    45 H11         13.3442    24.4080    30.5921 H            1 O1C1001   0.0000
    46 H12         12.4040    23.1381    31.0047 H            1 O1C1001   0.0000
    47 H13         14.4329    22.4184    31.6863 H            1 O1C1001   0.0000
    48 H14         14.9184    23.9115    32.1353 H            1 O1C1001   0.0000
    49 H15         13.4806    24.1394    36.5037 H            1 O1C1001   0.0000
    50 H16         12.4462    22.9477    36.0835 H            1 O1C1001   0.0000
    51 H17         11.7258    25.5460    36.7970 H            1 O1C1001   0.0000
    52 H18         10.6940    24.3638    36.3447 H            1 O1C1001   0.0000
    53 H19         12.0018    26.3037    34.6235 H            1 O1C1001   0.0000
    54 H20         11.4727    18.6003    35.4227 H            1 O1C1001   0.0000
    55 H21         11.7397    19.6417    34.0647 H            1 O1C1001   0.0000
    56 H22         17.3163    18.5283    34.2448 H            1 O1C1001   0.0000
    57 H23         12.4215    16.6550    36.1061 H            1 O1C1001   0.0000
    58 H24          9.7187    26.4006    33.5645 H            1 O1C1001   0.0000
    59 H25          8.3441    25.8079    35.9581 H            1 O1C1001   0.0000
    60 H26          8.8184    24.4895    35.1194 H            1 O1C1001   0.0000
    61 H27          9.8663    23.4670    33.1778 H            1 O1C1001   0.0000
    62 H28         11.1403    22.4517    33.0647 H            1 O1C1001   0.0000
    63 H29         10.5374    22.8452    34.5305 H            1 O1C1001   0.0000
    64 H30          8.9030    28.0381    35.1244 H            1 O1C1001   0.0000
    65 H31         10.0230    27.5412    36.2039 H            1 O1C1001   0.0000
    66 H32         10.4914    28.2436    34.8061 H            1 O1C1001   0.0000
    67 H33          7.6851    25.3821    33.1758 H            1 O1C1001   0.0000
    68 H34          7.1236    26.6013    34.1058 H            1 O1C1001   0.0000
    69 H35          6.1832    24.6425    35.4516 H            1 O1C1001   0.0000
    70 H36          6.2505    23.9137    33.9918 H            1 O1C1001   0.0000
    71 H37          4.9650    26.5175    35.7151 H            1 O1C1001   0.0000
    72 H38          2.7276    24.7034    34.2518 H            1 O1C1001   0.0000
    73 H39          3.7774    23.4862    33.9638 H            1 O1C1001   0.0000
    74 H40          3.6689    24.1343    35.4588 H            1 O1C1001   0.0000
    75 H41          3.6949    26.0336    32.3799 H            1 O1C1001   0.0000
    76 H42          5.2966    26.3447    32.3129 H            1 O1C1001   0.0000
    77 H43          4.7480    24.8280    32.0572 H            1 O1C1001   0.0000
    78 H44         13.4924    16.0502    33.4795 H            1 O1C1001   0.0000
    79 H45         13.1214    15.2660    34.8630 H            1 O1C1001   0.0000
    80 H46         15.2882    14.4846    33.1219 H            1 O1C1001   0.0000
    81 H47         13.8202    13.7693    33.1166 H            1 O1C1001   0.0000
    82 H48         15.6569    13.7130    35.3586 H            1 O1C1001   0.0000
    83 H49         15.3940    12.4541    34.3523 H            1 O1C1001   0.0000
    84 H50         13.8650    11.8094    35.5584 H            1 O1C1001   0.0000
@<TRIPOS>BOND
     1    1    2       1
     2    1    6       1
     3    1    7       2
     4    2    3       1
     5    2   18       2
     6    3    4       1
     7    3   20       1
     8    4    5       1
     9    4   31       1
    10    5    6       1
    11    5   19       1
    12    7    8       1
    13    8    9       2
    14    9   10       1
    15    9   14       1
    16   10   11       1
    17   10   15       1
    18   11   12       1
    19   11   17       1
    20   11   23       1
    21   12   13       1
    22   13   14       1
    23   15   16       1
    24   16   17       1
    25   17   21       1
    26   21   22       1
    27   21   24       1
    28   22   25       1
    29   25   26       1
    30   26   27       1
    31   27   28       1
    32   27   29       1
    33   27   30       1
    34   31   32       1
    35   32   33       1
    36   33   34       1
    37    3   35       1
    38    4   36       1
    39    5   37       1
    40    6   38       1
    41    6   39       1
    42    7   40       1
    43    8   41       1
    44   10   42       1
    45   12   43       1
    46   12   44       1
    47   13   45       1
    48   13   46       1
    49   14   47       1
    50   14   48       1
    51   15   49       1
    52   15   50       1
    53   16   51       1
    54   16   52       1
    55   17   53       1
    56   18   54       1
    57   18   55       1
    58   19   56       1
    59   20   57       1
    60   21   58       1
    61   22   59       1
    62   22   60       1
    63   23   61       1
    64   23   62       1
    65   23   63       1
    66   24   64       1
    67   24   65       1
    68   24   66       1
    69   25   67       1
    70   25   68       1
    71   26   69       1
    72   26   70       1
    73   28   71       1
    74   29   72       1
    75   29   73       1
    76   29   74       1
    77   30   75       1
    78   30   76       1
    79   30   77       1
    80   31   78       1
    81   31   79       1
    82   32   80       1
    83   32   81       1
    84   33   82       1
    85   33   83       1
    86   34   84       1
@<TRIPOS>SUBSTRUCTURE
     1 O1C1001     1 GROUP             4 A     O1C     0 **** O1C A1001
