@<TRIPOS>MOLECULE
2i0z_FAD_1_ligand
   84    89     1     0     0
SMALL
NO_CHARGES


@<TRIPOS>ATOM
     1 PA           3.6610    15.1360   -20.6210 P.3          1 FAD501   0.0000
     2 O1A          5.1300    14.8350   -20.5840 O.co2        1 FAD501   0.0000
     3 O2A          2.6480    14.1400   -21.1250 O.co2        1 FAD501  -1.0000
     4 O5B          3.3770    16.4630   -21.4950 O.3          1 FAD501   0.0000
     5 C5B          4.0800    17.6680   -21.2170 C.3          1 FAD501   0.0000
     6 C4B          3.8880    18.6650   -22.3700 C.3          1 FAD501   0.0000
     7 O4B          4.5360    19.8620   -22.0090 O.3          1 FAD501   0.0000
     8 C3B          4.5650    18.2180   -23.6850 C.3          1 FAD501   0.0000
     9 O3B          3.5370    18.2360   -24.6390 O.3          1 FAD501   0.0000
    10 C2B          5.6050    19.2900   -23.9930 C.3          1 FAD501   0.0000
    11 O2B          5.7600    19.6460   -25.3690 O.3          1 FAD501   0.0000
    12 C1B          5.0750    20.4650   -23.1690 C.3          1 FAD501   0.0000
    13 N9A          6.1790    21.3400   -22.7490 N.pl3        1 FAD501   0.0000
    14 C8A          7.3280    20.9960   -22.1010 C.2          1 FAD501   0.0000
    15 N7A          8.0810    22.1180   -21.9230 N.2          1 FAD501   0.0000
    16 C5A          7.4160    23.1800   -22.4390 C.ar         1 FAD501   0.0000
    17 C6A          7.7470    24.5340   -22.5350 C.ar         1 FAD501   0.0000
    18 N6A          8.8850    25.0280   -21.9950 N.pl3        1 FAD501   0.0000
    19 N1A          6.8060    25.3450   -23.1470 N.ar         1 FAD501   0.0000
    20 C2A          5.6130    24.8560   -23.6440 C.ar         1 FAD501   0.0000
    21 N3A          5.3140    23.5150   -23.5350 N.ar         1 FAD501   0.0000
    22 C4A          6.2250    22.7080   -22.9640 C.ar         1 FAD501   0.0000
    23 N1           1.6320     6.1980   -17.8930 N.2          1 FAD501   0.0000
    24 C2           0.4270     5.5540   -17.7370 C.2          1 FAD501   0.0000
    25 O2          -0.2780     5.7840   -16.7670 O.2          1 FAD501   0.0000
    26 N3          -0.0210     4.6690   -18.6820 N.pl3        1 FAD501   0.0000
    27 C4           0.7290     4.3290   -19.7720 C.2          1 FAD501   0.0000
    28 O4           0.3040     3.4950   -20.5930 O.2          1 FAD501   0.0000
    29 C4X          1.9500     4.9550   -19.9350 C.2          1 FAD501   0.0000
    30 N5           2.7370     4.6190   -21.0020 N.2          1 FAD501   0.0000
    31 C5X          3.9230     5.2930   -21.2180 C.ar         1 FAD501   0.0000
    32 C6           4.7070     4.9830   -22.3280 C.ar         1 FAD501   0.0000
    33 C7           5.9300     5.6420   -22.5290 C.ar         1 FAD501   0.0000
    34 C7M          6.8590     5.1250   -23.6030 C.3          1 FAD501   0.0000
    35 C8           6.3690     6.5940   -21.6060 C.ar         1 FAD501   0.0000
    36 C8M          7.5280     7.5030   -21.9160 C.3          1 FAD501   0.0000
    37 C9           5.5630     6.9090   -20.5060 C.ar         1 FAD501   0.0000
    38 C9A          4.3460     6.2500   -20.3030 C.ar         1 FAD501   0.0000
    39 N10          3.5700     6.5660   -19.2010 N.pl3        1 FAD501   0.0000
    40 C10          2.3760     5.9290   -19.0150 C.2          1 FAD501   0.0000
    41 C1'          3.8750     7.8430   -18.4320 C.3          1 FAD501   0.0000
    42 C2'          2.8850     8.9410   -18.8370 C.3          1 FAD501   0.0000
    43 O2'          2.8420     9.0240   -20.2360 O.3          1 FAD501   0.0000
    44 C3'          3.3390    10.2880   -18.2610 C.3          1 FAD501   0.0000
    45 O3'          3.5520    10.1650   -16.8700 O.3          1 FAD501   0.0000
    46 C4'          2.3450    11.4030   -18.5560 C.3          1 FAD501   0.0000
    47 O4'          2.1970    11.5940   -19.9650 O.3          1 FAD501   0.0000
    48 C5'          2.7780    12.7070   -17.8980 C.3          1 FAD501   0.0000
    49 O5'          1.7740    13.6500   -18.2700 O.3          1 FAD501   0.0000
    50 P            2.1150    15.2030   -18.1350 P.3          1 FAD501   0.0000
    51 O1P          0.8840    15.9630   -18.5810 O.co2        1 FAD501   0.0000
    52 O2P          2.6370    15.5310   -16.7740 O.co2        1 FAD501  -1.0000
    53 O3P          3.3580    15.5450   -19.0890 O.3          1 FAD501   0.0000
    54 H5B1         5.0539    17.4667   -21.1117 H            1 FAD501   0.0000
    55 H5B2         3.7290    18.0686   -20.3706 H            1 FAD501   0.0000
    56 H4B          2.9140    18.8324   -22.5229 H            1 FAD501   0.0000
    57 H3B          4.9787    17.3115   -23.6010 H            1 FAD501   0.0000
    58 H5           3.4951    19.1388   -25.0669 H            1 FAD501   0.0000
    59 H2B          6.4902    19.0041   -23.6259 H            1 FAD501   0.0000
    60 H7           4.8923    19.9953   -25.7227 H            1 FAD501   0.0000
    61 H1B          4.3771    20.9757   -23.6711 H            1 FAD501   0.0000
    62 H8A          7.5770    20.0737   -21.8054 H            1 FAD501   0.0000
    63 H6A1         9.0966    26.0017   -22.0790 H            1 FAD501   0.0000
    64 H6A2         9.5145    24.4194   -21.5119 H            1 FAD501   0.0000
    65 H2A          4.9645    25.4771   -24.0842 H            1 FAD501   0.0000
    66 H13         -0.9261     4.2587   -18.5703 H            1 FAD501   0.0000
    67 H14          4.3983     4.2914   -22.9809 H            1 FAD501   0.0000
    68 H7M1         7.6840     5.6894   -23.6301 H            1 FAD501   0.0000
    69 H7M2         7.1093     4.1784   -23.3999 H            1 FAD501   0.0000
    70 H7M3         6.3984     5.1651   -24.4897 H            1 FAD501   0.0000
    71 H8M1         7.6919     8.1109   -21.1391 H            1 FAD501   0.0000
    72 H8M2         8.3458     6.9537   -22.0878 H            1 FAD501   0.0000
    73 H8M3         7.3163     8.0483   -22.7271 H            1 FAD501   0.0000
    74 H21          5.8599     7.6116   -19.8593 H            1 FAD501   0.0000
    75 H1'1         4.8062     8.1420   -18.6406 H            1 FAD501   0.0000
    76 H1'2         3.7932     7.6675   -17.4509 H            1 FAD501   0.0000
    77 H2'          1.9754     8.7170   -18.4870 H            1 FAD501   0.0000
    78 H25          2.6312     9.9630   -20.5079 H            1 FAD501   0.0000
    79 H3'          4.2106    10.5293   -18.6876 H            1 FAD501   0.0000
    80 H27          4.2644    10.8058   -16.5839 H            1 FAD501   0.0000
    81 H4'          1.4567    11.1403   -18.1792 H            1 FAD501   0.0000
    82 H29          2.4598    12.5287   -20.2041 H            1 FAD501   0.0000
    83 H5'1         3.6740    12.9931   -18.2377 H            1 FAD501   0.0000
    84 H5'2         2.8154    12.6052   -16.9039 H            1 FAD501   0.0000
@<TRIPOS>BOND
     1    1    2      ar
     2    1    3      ar
     3    1    4       1
     4    1   53       1
     5    4    5       1
     6    5    6       1
     7    6    7       1
     8    6    8       1
     9    7   12       1
    10    8    9       1
    11    8   10       1
    12   10   11       1
    13   10   12       1
    14   12   13       1
    15   13   14       1
    16   13   22       1
    17   14   15       2
    18   15   16       1
    19   16   17      ar
    20   16   22      ar
    21   17   18       1
    22   17   19      ar
    23   19   20      ar
    24   20   21      ar
    25   21   22      ar
    26   23   24       1
    27   23   40       2
    28   24   25       2
    29   24   26       1
    30   26   27       1
    31   27   28       2
    32   27   29       1
    33   29   30       2
    34   29   40       1
    35   30   31       1
    36   31   32      ar
    37   31   38      ar
    38   32   33      ar
    39   33   34       1
    40   33   35      ar
    41   35   36       1
    42   35   37      ar
    43   37   38      ar
    44   38   39       1
    45   39   40       1
    46   39   41       1
    47   41   42       1
    48   42   43       1
    49   42   44       1
    50   44   45       1
    51   44   46       1
    52   46   47       1
    53   46   48       1
    54   48   49       1
    55   49   50       1
    56   50   51      ar
    57   50   52      ar
    58   50   53       1
    59   48   84       1
    60    5   54       1
    61    5   55       1
    62    6   56       1
    63    8   57       1
    64    9   58       1
    65   10   59       1
    66   11   60       1
    67   12   61       1
    68   14   62       1
    69   18   63       1
    70   18   64       1
    71   20   65       1
    72   26   66       1
    73   32   67       1
    74   34   68       1
    75   34   69       1
    76   34   70       1
    77   36   71       1
    78   36   72       1
    79   36   73       1
    80   37   74       1
    81   41   75       1
    82   41   76       1
    83   42   77       1
    84   43   78       1
    85   44   79       1
    86   45   80       1
    87   46   81       1
    88   47   82       1
    89   48   83       1
@<TRIPOS>SUBSTRUCTURE
     1 FAD501      1 GROUP             4 A     FAD     0 **** FAD A 501
