@<TRIPOS>MOLECULE
3nbr_ASD_1_ligand
   47    50     1     0     0
SMALL
NO_CHARGES


@<TRIPOS>ATOM
     1 C1           3.0250    49.6890    14.7580 C.3          1 ASD129   0.0000
     2 C10          3.5490    51.0980    14.8180 C.3          1 ASD129   0.0000
     3 C11          3.0060    51.6420    17.3210 C.3          1 ASD129   0.0000
     4 C12          2.3330    52.5930    18.3390 C.3          1 ASD129   0.0000
     5 C13          2.7560    54.0110    18.0000 C.3          1 ASD129   0.0000
     6 C14          2.2760    54.3470    16.5860 C.3          1 ASD129   0.0000
     7 C15          2.4770    55.8900    16.5020 C.3          1 ASD129   0.0000
     8 C16          1.8200    56.3750    17.8120 C.3          1 ASD129   0.0000
     9 C17          2.0780    55.1600    18.7800 C.2          1 ASD129   0.0000
    10 C18          4.2830    54.1610    18.1590 C.3          1 ASD129   0.0000
    11 C19          5.0390    51.1450    15.2300 C.3          1 ASD129   0.0000
    12 C2           4.0990    48.8570    14.0510 C.3          1 ASD129   0.0000
    13 C3           4.2840    49.3150    12.5860 C.2          1 ASD129   0.0000
    14 C4           4.0850    50.6970    12.2920 C.2          1 ASD129   0.0000
    15 C5           3.6630    51.5760    13.3240 C.2          1 ASD129   0.0000
    16 C6           3.4510    53.0610    13.0420 C.3          1 ASD129   0.0000
    17 C7           2.5060    53.7040    14.0850 C.3          1 ASD129   0.0000
    18 C8           2.9760    53.4620    15.5240 C.3          1 ASD129   0.0000
    19 C9           2.7380    51.9870    15.8260 C.3          1 ASD129   0.0000
    20 O1           4.6810    48.4740    11.7510 O.2          1 ASD129   0.0000
    21 O2           1.8490    55.1310    19.9920 O.2          1 ASD129   0.0000
    22 H1           2.1694    49.6601    14.2412 H            1 ASD129   0.0000
    23 H2           2.8686    49.3387    15.6815 H            1 ASD129   0.0000
    24 H3           2.6694    50.7159    17.4914 H            1 ASD129   0.0000
    25 H4           3.9937    51.6712    17.4744 H            1 ASD129   0.0000
    26 H5           2.6281    52.3625    19.2663 H            1 ASD129   0.0000
    27 H6           1.3384    52.5104    18.2755 H            1 ASD129   0.0000
    28 H7           1.2943    54.1618    16.5422 H            1 ASD129   0.0000
    29 H8           2.0159    56.2728    15.7015 H            1 ASD129   0.0000
    30 H9           3.4478    56.1283    16.4732 H            1 ASD129   0.0000
    31 H10          0.8413    56.5390    17.6882 H            1 ASD129   0.0000
    32 H11          2.2574    57.2081    18.1506 H            1 ASD129   0.0000
    33 H12          4.5512    55.0976    17.9336 H            1 ASD129   0.0000
    34 H13          4.5413    53.9585    19.1036 H            1 ASD129   0.0000
    35 H14          4.7464    53.5241    17.5429 H            1 ASD129   0.0000
    36 H15          5.3473    52.0959    15.2579 H            1 ASD129   0.0000
    37 H16          5.1479    50.7326    16.1345 H            1 ASD129   0.0000
    38 H17          5.5852    50.6369    14.5640 H            1 ASD129   0.0000
    39 H18          3.8256    47.8951    14.0603 H            1 ASD129   0.0000
    40 H19          4.9662    48.9618    14.5378 H            1 ASD129   0.0000
    41 H20          4.2414    51.0434    11.3671 H            1 ASD129   0.0000
    42 H21          3.0503    53.1654    12.1318 H            1 ASD129   0.0000
    43 H22          4.3350    53.5275    13.0726 H            1 ASD129   0.0000
    44 H23          1.5922    53.3129    13.9752 H            1 ASD129   0.0000
    45 H24          2.4687    54.6897    13.9205 H            1 ASD129   0.0000
    46 H25          3.9596    53.6372    15.5673 H            1 ASD129   0.0000
    47 H26          1.7689    51.8085    15.6560 H            1 ASD129   0.0000
@<TRIPOS>BOND
     1    1    2       1
     2    1   12       1
     3    2   11       1
     4    2   15       1
     5    2   19       1
     6    3    4       1
     7    3   19       1
     8    4    5       1
     9    5    6       1
    10    5    9       1
    11    5   10       1
    12    6    7       1
    13    6   18       1
    14    7    8       1
    15    8    9       1
    16    9   21       2
    17   12   13       1
    18   13   14       1
    19   13   20       2
    20   14   15       2
    21   15   16       1
    22   16   17       1
    23   17   18       1
    24   18   19       1
    25    1   22       1
    26    1   23       1
    27    3   24       1
    28    3   25       1
    29    4   26       1
    30    4   27       1
    31    6   28       1
    32    7   29       1
    33    7   30       1
    34    8   31       1
    35    8   32       1
    36   10   33       1
    37   10   34       1
    38   10   35       1
    39   11   36       1
    40   11   37       1
    41   11   38       1
    42   12   39       1
    43   12   40       1
    44   14   41       1
    45   16   42       1
    46   16   43       1
    47   17   44       1
    48   17   45       1
    49   18   46       1
    50   19   47       1
@<TRIPOS>SUBSTRUCTURE
     1 ASD129      1 GROUP             4 A     ASD     0 **** ASD A 129
