@<TRIPOS>MOLECULE
2ve3_REA_2_ligand
   53    53     1     0     0
SMALL
NO_CHARGES


@<TRIPOS>ATOM
     1 C1          30.3170    33.9900    28.7980 C.3          1 REA1445   0.0000
     2 C2          30.4970    35.3110    28.0400 C.3          1 REA1445   0.0000
     3 C3          31.8240    35.9810    28.4120 C.3          1 REA1445   0.0000
     4 C4          32.9770    35.1680    27.8450 C.3          1 REA1445   0.0000
     5 C5          32.8670    33.7350    28.3300 C.2          1 REA1445   0.0000
     6 C6          31.6340    33.1920    28.7830 C.2          1 REA1445   0.0000
     7 C7          31.6120    31.7980    29.2560 C.3          1 REA1445   0.0000
     8 C8          32.3090    31.4500    30.4990 C.2          1 REA1445   0.0000
     9 C9          32.0230    30.1720    31.1540 C.2          1 REA1445   0.0000
    10 C10         32.4290    30.0040    32.5450 C.3          1 REA1445   0.0000
    11 C11         33.6160    29.2570    32.9450 C.3          1 REA1445   0.0000
    12 C12         34.2240    29.5960    34.2340 C.3          1 REA1445   0.0000
    13 C13         34.6070    28.5430    35.1760 C.2          1 REA1445   0.0000
    14 C14         34.9230    28.9210    36.5030 C.2          1 REA1445   0.0000
    15 C15         34.7390    27.9810    37.6240 C.2          1 REA1445   0.0000
    16 C16         29.8830    34.2170    30.2400 C.3          1 REA1445   0.0000
    17 C17         29.1870    33.2180    28.1170 C.3          1 REA1445   0.0000
    18 C18         34.1260    32.9090    28.2980 C.3          1 REA1445   0.0000
    19 C19         31.2970    29.0740    30.4310 C.3          1 REA1445   0.0000
    20 C20         34.6630    27.1080    34.7010 C.3          1 REA1445   0.0000
    21 O1          33.6800    27.3120    37.7450 O.co2        1 REA1445   0.0000
    22 O2          35.6400    27.8450    38.4830 O.co2        1 REA1445  -1.0000
    23 H1          29.7436    35.9264    28.2719 H            1 REA1445   0.0000
    24 H2          30.4874    35.1279    27.0570 H            1 REA1445   0.0000
    25 H3          31.9066    36.0277    29.4075 H            1 REA1445   0.0000
    26 H4          31.8490    36.9055    28.0317 H            1 REA1445   0.0000
    27 H5          33.8444    35.5590    28.1527 H            1 REA1445   0.0000
    28 H6          32.9389    35.1862    26.8459 H            1 REA1445   0.0000
    29 H7          32.0119    31.2376    28.5307 H            1 REA1445   0.0000
    30 H8          30.6519    31.5472    29.3800 H            1 REA1445   0.0000
    31 H9          32.9750    32.0813    30.8963 H            1 REA1445   0.0000
    32 H10         31.6585    29.5623    33.0047 H            1 REA1445   0.0000
    33 H11         32.5497    30.9274    32.9094 H            1 REA1445   0.0000
    34 H12         34.3107    29.3977    32.2396 H            1 REA1445   0.0000
    35 H13         33.3648    28.2896    32.9772 H            1 REA1445   0.0000
    36 H14         33.5720    30.1845    34.7121 H            1 REA1445   0.0000
    37 H15         35.0546    30.1146    34.0312 H            1 REA1445   0.0000
    38 H16         35.2762    29.8391    36.6829 H            1 REA1445   0.0000
    39 H17         29.7768    33.3349    30.6989 H            1 REA1445   0.0000
    40 H18         30.5762    34.7587    30.7154 H            1 REA1445   0.0000
    41 H19         29.0110    34.7064    30.2526 H            1 REA1445   0.0000
    42 H20         29.0450    32.3485    28.5901 H            1 REA1445   0.0000
    43 H21         28.3460    33.7579    28.1522 H            1 REA1445   0.0000
    44 H22         29.4308    33.0426    27.1632 H            1 REA1445   0.0000
    45 H23         33.9301    31.9895    28.6387 H            1 REA1445   0.0000
    46 H24         34.4631    32.8515    27.3583 H            1 REA1445   0.0000
    47 H25         34.8206    33.3376    28.8757 H            1 REA1445   0.0000
    48 H26         31.1961    28.2854    31.0376 H            1 REA1445   0.0000
    49 H27         30.3929    29.3987    30.1533 H            1 REA1445   0.0000
    50 H28         31.8186    28.8067    29.6207 H            1 REA1445   0.0000
    51 H29         34.9387    26.5166    35.4588 H            1 REA1445   0.0000
    52 H30         33.7602    26.8301    34.3727 H            1 REA1445   0.0000
    53 H31         35.3271    27.0286    33.9576 H            1 REA1445   0.0000
@<TRIPOS>BOND
     1    1    2       1
     2    1    6       1
     3    1   16       1
     4    1   17       1
     5    2    3       1
     6    3    4       1
     7    4    5       1
     8    5    6       2
     9    5   18       1
    10    6    7       1
    11    7    8       1
    12    8    9       2
    13    9   10       1
    14    9   19       1
    15   10   11       1
    16   11   12       1
    17   12   13       1
    18   13   14       2
    19   13   20       1
    20   14   15       1
    21   15   21      ar
    22   15   22      ar
    23    2   23       1
    24    2   24       1
    25    3   25       1
    26    3   26       1
    27    4   27       1
    28    4   28       1
    29    7   29       1
    30    7   30       1
    31    8   31       1
    32   10   32       1
    33   10   33       1
    34   11   34       1
    35   11   35       1
    36   12   36       1
    37   12   37       1
    38   14   38       1
    39   16   39       1
    40   16   40       1
    41   16   41       1
    42   17   42       1
    43   17   43       1
    44   17   44       1
    45   18   45       1
    46   18   46       1
    47   18   47       1
    48   19   48       1
    49   19   49       1
    50   19   50       1
    51   20   51       1
    52   20   52       1
    53   20   53       1
@<TRIPOS>SUBSTRUCTURE
     1 REA1445     1 GROUP             4 B     REA     0 **** REA B1445
