@<TRIPOS>MOLECULE
3v9v_21L_1_ligand
   71    75     1     0     0
SMALL
NO_CHARGES


@<TRIPOS>ATOM
     1 C1           6.2430    45.6110    57.9550 C.ar         1 21L501   0.0000
     2 C2           7.5560    45.2070    57.9930 C.ar         1 21L501   0.0000
     3 C3           5.9430    46.9470    57.8280 C.ar         1 21L501   0.0000
     4 C4           8.5660    46.1390    57.9030 C.ar         1 21L501   0.0000
     5 C5           6.6220    49.2110    57.6100 C.ar         1 21L501   0.0000
     6 C6           8.9290    49.7710    57.5530 C.ar         1 21L501   0.0000
     7 C7          11.9050    46.3200    62.9370 C.ar         1 21L501   0.0000
     8 C8           6.9530    47.8790    57.7370 C.ar         1 21L501   0.0000
     9 C9           8.2750    47.4830    57.7730 C.ar         1 21L501   0.0000
    10 C10         12.5720    47.3270    60.8670 C.ar         1 21L501   0.0000
    11 C11         13.8650    47.6800    62.8420 C.ar         1 21L501   0.0000
    12 C12          7.6120    50.1630    57.5140 C.ar         1 21L501   0.0000
    13 C13          9.2680    48.4400    57.6780 C.ar         1 21L501   0.0000
    14 C14         13.6510    47.8860    61.5070 C.ar         1 21L501   0.0000
    15 C15         11.6940    46.5380    61.5840 C.ar         1 21L501   0.0000
    16 C16         12.9940    46.8940    63.5610 C.ar         1 21L501   0.0000
    17 C17         15.7990    50.4700    62.0690 C.2          1 21L501   0.0000
    18 C18         16.0420    50.3980    64.4740 C.2          1 21L501   0.0000
    19 C19         16.3520    50.9560    63.2940 C.2          1 21L501   0.0000
    20 C20         15.2230    49.2700    62.0450 C.2          1 21L501   0.0000
    21 C21         15.1110    49.2460    64.4710 C.2          1 21L501   0.0000
    22 C22         12.3780    47.5700    59.4340 C.2          1 21L501   0.0000
    23 C23         16.6390    50.9560    65.7000 C.2          1 21L501   0.0000
    24 C24          6.1200    51.7590    55.2100 C.2          1 21L501   0.0000
    25 C25         15.0990    48.3960    63.2390 C.3          1 21L501   0.0000
    26 C26         18.1190    51.1710    65.6990 C.3          1 21L501   0.0000
    27 C27         16.2480    47.4210    63.3100 C.3          1 21L501   0.0000
    28 C28          9.5970    45.6550    61.8230 C.3          1 21L501   0.0000
    29 C29          4.9970    51.9540    53.2500 C.3          1 21L501   0.0000
    30 C30          7.2760    51.6110    57.3860 C.3          1 21L501   0.0000
    31 C31         10.7170    48.0920    57.7220 C.3          1 21L501   0.0000
    32 C32          7.3780    52.0810    55.9510 C.3          1 21L501   0.0000
    33 N33         11.0780    47.8450    59.0960 N.am         1 21L501   0.0000
    34 O34         14.4230    48.9960    65.4470 O.2          1 21L501   0.0000
    35 O35         13.3340    47.5090    58.6760 O.2          1 21L501   0.0000
    36 O36         15.9360    51.2140    66.6670 O.2          1 21L501   0.0000
    37 O37          5.1340    51.2190    55.6860 O.2          1 21L501   0.0000
    38 O38         14.6170    48.6970    60.9410 O.3          1 21L501   0.0000
    39 O39         13.1960    46.6740    64.9050 O.3          1 21L501   0.0000
    40 O40         17.1940    52.0310    63.1400 O.3          1 21L501   0.0000
    41 O41         10.6220    45.9880    60.8970 O.3          1 21L501   0.0000
    42 O42          6.2340    52.1550    53.9180 O.3          1 21L501   0.0000
    43 H1           5.5082    44.9357    58.0195 H            1 21L501   0.0000
    44 H2           7.7780    44.2364    58.0860 H            1 21L501   0.0000
    45 H3           4.9881    47.2429    57.8016 H            1 21L501   0.0000
    46 H4           9.5197    45.8397    57.9321 H            1 21L501   0.0000
    47 H5           5.6609    49.4864    57.5875 H            1 21L501   0.0000
    48 H6           9.6509    50.4601    57.4899 H            1 21L501   0.0000
    49 H7          11.2707    45.7492    63.4585 H            1 21L501   0.0000
    50 H8          15.8443    51.0255    61.2387 H            1 21L501   0.0000
    51 H9          18.4013    51.5506    66.5800 H            1 21L501   0.0000
    52 H10         18.5826    50.2978    65.5484 H            1 21L501   0.0000
    53 H11         18.3628    51.8083    64.9679 H            1 21L501   0.0000
    54 H12         17.0805    47.9058    63.5782 H            1 21L501   0.0000
    55 H13         16.0427    46.7125    63.9852 H            1 21L501   0.0000
    56 H14         16.3824    46.9984    62.4137 H            1 21L501   0.0000
    57 H15          8.8211    45.2578    61.3328 H            1 21L501   0.0000
    58 H16          9.9479    44.9923    62.4846 H            1 21L501   0.0000
    59 H17          9.3006    46.4805    62.3033 H            1 21L501   0.0000
    60 H18          5.0813    52.2461    52.2973 H            1 21L501   0.0000
    61 H19          4.7551    50.9842    53.2812 H            1 21L501   0.0000
    62 H20          4.2836    52.4902    53.7011 H            1 21L501   0.0000
    63 H21          7.9103    52.1423    57.9475 H            1 21L501   0.0000
    64 H22          6.3413    51.7573    57.7099 H            1 21L501   0.0000
    65 H23         11.2588    48.8508    57.3606 H            1 21L501   0.0000
    66 H24         10.8852    47.2720    57.1749 H            1 21L501   0.0000
    67 H25          7.5252    53.0700    55.9373 H            1 21L501   0.0000
    68 H26          8.1486    51.6231    55.5077 H            1 21L501   0.0000
    69 H27         10.3755    47.8745    59.8071 H            1 21L501   0.0000
    70 H28         13.9820    47.0854    65.3664 H            1 21L501   0.0000
    71 H29         17.3700    52.4017    62.2281 H            1 21L501   0.0000
@<TRIPOS>BOND
     1    1    2      ar
     2    1    3      ar
     3    2    4      ar
     4    3    8      ar
     5    4    9      ar
     6    5    8      ar
     7    5   12      ar
     8    6   12      ar
     9    6   13      ar
    10    7   15      ar
    11    7   16      ar
    12    8    9      ar
    13    9   13      ar
    14   10   14      ar
    15   10   15      ar
    16   10   22       1
    17   11   14      ar
    18   11   16      ar
    19   11   25       1
    20   12   30       1
    21   13   31       1
    22   14   38       1
    23   15   41       1
    24   16   39       1
    25   17   19       1
    26   17   20       2
    27   18   19       2
    28   18   21       1
    29   18   23       1
    30   19   40       1
    31   20   25       1
    32   20   38       1
    33   21   25       1
    34   21   34       2
    35   22   33      am
    36   22   35       2
    37   23   26       1
    38   23   36       2
    39   24   32       1
    40   24   37       2
    41   24   42       1
    42   25   27       1
    43   28   41       1
    44   29   42       1
    45   30   32       1
    46   31   33       1
    47    1   43       1
    48    2   44       1
    49    3   45       1
    50    4   46       1
    51    5   47       1
    52    6   48       1
    53    7   49       1
    54   17   50       1
    55   26   51       1
    56   26   52       1
    57   26   53       1
    58   27   54       1
    59   27   55       1
    60   27   56       1
    61   28   57       1
    62   28   58       1
    63   28   59       1
    64   29   60       1
    65   29   61       1
    66   29   62       1
    67   30   63       1
    68   30   64       1
    69   31   65       1
    70   31   66       1
    71   32   67       1
    72   32   68       1
    73   33   69       1
    74   39   70       1
    75   40   71       1
@<TRIPOS>SUBSTRUCTURE
     1 21L501      1 GROUP             4 A     21L     0 **** 21L A 501
