@<TRIPOS>MOLECULE
4mxa_BK7_1_ligand
   57    61     1     0     0
SMALL
NO_CHARGES


@<TRIPOS>ATOM
     1 N1          -3.0150   -23.5160   -31.0310 N.ar         1 BK7601   0.0000
     2 C2          -4.1610   -22.9450   -30.7230 C.ar         1 BK7601   0.0000
     3 N3          -4.2260   -21.6280   -30.5690 N.ar         1 BK7601   0.0000
     4 C4          -3.1350   -20.8570   -30.7550 C.ar         1 BK7601   0.0000
     5 C5          -1.9240   -21.4290   -31.0890 C.ar         1 BK7601   0.0000
     6 C6          -1.8880   -22.7930   -31.2320 C.ar         1 BK7601   0.0000
     7 CAA          8.4400   -21.4820   -31.7110 C.3          1 BK7601   0.0000
     8 NAB         -0.7640   -23.3990   -31.5310 N.pl3        1 BK7601   0.0000
     9 CAC          4.4220   -21.4450   -33.8300 C.ar         1 BK7601   0.0000
    10 CAD          1.1100   -19.8990   -30.4990 C.ar         1 BK7601   0.0000
    11 CAE          3.0380   -21.4490   -33.7790 C.ar         1 BK7601   0.0000
    12 CAF          2.4890   -19.8960   -30.5610 C.ar         1 BK7601   0.0000
    13 CAH          4.4670   -20.3820   -31.6690 C.ar         1 BK7601   0.0000
    14 CAI          0.9720   -20.9320   -32.6080 C.ar         1 BK7601   0.0000
    15 CAJ          6.9460   -21.8630   -31.8670 C.3          1 BK7601   0.0000
    16 CAK         -5.2600   -17.0790   -27.1410 C.3          1 BK7601   0.0000
    17 CAL         -2.8630   -16.7780   -27.1060 C.3          1 BK7601   0.0000
    18 CAM         -5.2530   -17.4910   -28.5820 C.3          1 BK7601   0.0000
    19 CAN         -2.7430   -17.3090   -28.5480 C.3          1 BK7601   0.0000
    20 CAO         -3.8920   -18.5420   -30.3590 C.3          1 BK7601   0.0000
    21 NAR         -1.7300   -19.2600   -30.9130 N.2          1 BK7601   0.0000
    22 NAS         -4.1780   -16.0990   -26.9210 N.4          1 BK7601   1.0000
    23 OAT          6.4670   -20.8710   -32.7920 O.3          1 BK7601   0.0000
    24 CAU          5.1210   -20.9040   -32.7710 C.ar         1 BK7601   0.0000
    25 CAV          0.3310   -20.4220   -31.4900 C.ar         1 BK7601   0.0000
    26 CAX         -1.0380   -20.3610   -31.2220 C.2          1 BK7601   0.0000
    27 CAY          3.1090   -20.4040   -31.6500 C.ar         1 BK7601   0.0000
    28 CAZ          2.3630   -20.9230   -32.6810 C.ar         1 BK7601   0.0000
    29 CBC         -3.9360   -18.2120   -28.8760 C.3          1 BK7601   0.0000
    30 NBD         -2.8980   -19.5540   -30.6690 N.pl3        1 BK7601   0.0000
    31 H1          -4.9822   -23.5034   -30.6051 H            1 BK7601   0.0000
    32 HAA1         8.8816   -22.1173   -31.0775 H            1 BK7601   0.0000
    33 HAA2         8.8915   -21.5318   -32.6019 H            1 BK7601   0.0000
    34 HAA3         8.5109   -20.5510   -31.3530 H            1 BK7601   0.0000
    35 HAB1         0.0681   -22.8646   -31.6794 H            1 BK7601   0.0000
    36 HAB2        -0.7390   -24.3955   -31.6106 H            1 BK7601   0.0000
    37 HAC          4.9047   -21.8265   -34.6184 H            1 BK7601   0.0000
    38 HAD          0.6643   -19.5024   -29.6964 H            1 BK7601   0.0000
    39 HAE          2.5170   -21.8346   -34.5405 H            1 BK7601   0.0000
    40 HAF          3.0259   -19.5206   -29.8055 H            1 BK7601   0.0000
    41 HAH          4.9827   -19.9971   -30.9035 H            1 BK7601   0.0000
    42 HAI          0.4350   -21.3071   -33.3636 H            1 BK7601   0.0000
    43 HAJ1         6.4647   -21.8040   -30.9924 H            1 BK7601   0.0000
    44 HAJ2         6.8453   -22.7848   -32.2414 H            1 BK7601   0.0000
    45 HAK1        -5.1106   -17.8803   -26.5616 H            1 BK7601   0.0000
    46 HAK2        -6.1409   -16.6635   -26.9145 H            1 BK7601   0.0000
    47 HAL1        -2.1257   -16.1255   -26.9308 H            1 BK7601   0.0000
    48 HAL2        -2.7915   -17.5419   -26.4646 H            1 BK7601   0.0000
    49 HAM1        -5.3316   -16.6818   -29.1643 H            1 BK7601   0.0000
    50 HAM2        -6.0211   -18.1060   -28.7605 H            1 BK7601   0.0000
    51 HAN1        -1.8963   -17.8334   -28.6382 H            1 BK7601   0.0000
    52 HAN2        -2.7268   -16.5378   -29.1844 H            1 BK7601   0.0000
    53 HAO1        -3.6725   -17.7093   -30.8674 H            1 BK7601   0.0000
    54 HAO2        -4.7910   -18.8773   -30.6407 H            1 BK7601   0.0000
    55 HAS1        -4.2394   -15.7347   -25.9918 H            1 BK7601   0.0000
    56 HBC         -3.8825   -19.0539   -28.3390 H            1 BK7601   0.0000
    57 HAS2        -4.2645   -15.3508   -27.5788 H            1 BK7601   0.0000
@<TRIPOS>BOND
     1    1    2      ar
     2    1    6      ar
     3    2    3      ar
     4    3    4      ar
     5    4    5      ar
     6    4   30       1
     7    5    6      ar
     8    5   26       1
     9    6    8       1
    10    7   15       1
    11    9   11      ar
    12    9   24      ar
    13   10   12      ar
    14   10   25      ar
    15   11   28      ar
    16   12   27      ar
    17   13   24      ar
    18   13   27      ar
    19   14   25      ar
    20   14   28      ar
    21   15   23       1
    22   16   18       1
    23   16   22       1
    24   17   19       1
    25   17   22       1
    26   18   29       1
    27   19   29       1
    28   20   29       1
    29   20   30       1
    30   21   26       2
    31   21   30       1
    32   23   24       1
    33   25   26       1
    34   27   28      ar
    35    2   31       1
    36    7   32       1
    37    7   33       1
    38    7   34       1
    39    8   35       1
    40    8   36       1
    41    9   37       1
    42   10   38       1
    43   11   39       1
    44   12   40       1
    45   13   41       1
    46   14   42       1
    47   15   43       1
    48   15   44       1
    49   16   45       1
    50   16   46       1
    51   17   47       1
    52   17   48       1
    53   18   49       1
    54   18   50       1
    55   19   51       1
    56   19   52       1
    57   20   53       1
    58   20   54       1
    59   22   55       1
    60   29   56       1
    61   22   57       1
@<TRIPOS>SUBSTRUCTURE
     1 BK7601      1 GROUP             4 A     BK7     0 **** BK7 A 601
