@<TRIPOS>MOLECULE
1nmi_IMD_1_ligand
    9     9     1     0     0
SMALL
NO_CHARGES


@<TRIPOS>ATOM
     1 N1          -4.5930     0.9580    -3.0050 N.2          1 IMD104   0.0000
     2 C2          -4.5210     1.8670    -2.0170 C.2          1 IMD104   0.0000
     3 N3          -4.6480     3.1190    -2.4990 N.pl3        1 IMD104   0.0000
     4 C4          -4.8370     3.0250    -3.8590 C.2          1 IMD104   0.0000
     5 C5          -4.8210     1.6940    -4.1740 C.2          1 IMD104   0.0000
     6 H1          -4.3903     1.6434    -1.0511 H            1 IMD104   0.0000
     7 H2          -4.9623     3.7855    -4.4961 H            1 IMD104   0.0000
     8 H3          -4.9507     1.3101    -5.0882 H            1 IMD104   0.0000
     9 H4          -4.6115     3.9637    -1.9650 H            1 IMD104   0.0000
@<TRIPOS>BOND
     1    1    2       2
     2    1    5       1
     3    2    3       1
     4    3    4       1
     5    4    5       2
     6    5    8       1
     7    2    6       1
     8    4    7       1
     9    3    9       1
@<TRIPOS>SUBSTRUCTURE
     1 IMD104      1 GROUP             4 A     IMD     0 **** IMD A 104
