@<TRIPOS>MOLECULE
1yb1_AOI_1_ligand
   51    54     1     0     0
SMALL
NO_CHARGES


@<TRIPOS>ATOM
     1 C1          23.9620   -31.0580     2.9830 C.3          1 AOI602   0.0000
     2 C2          24.9120   -30.4400     1.9500 C.3          1 AOI602   0.0000
     3 C3          24.2600   -30.3140     0.5780 C.3          1 AOI602   0.0000
     4 O3          24.0670   -31.6270     0.0390 O.3          1 AOI602   0.0000
     5 C4          22.9070   -29.6050     0.6710 C.3          1 AOI602   0.0000
     6 C5          22.0030   -30.2450     1.7310 C.3          1 AOI602   0.0000
     7 C6          20.6390   -29.5560     1.7280 C.3          1 AOI602   0.0000
     8 C7          19.6890   -30.2230     2.7090 C.3          1 AOI602   0.0000
     9 C8          20.3070   -30.3410     4.1100 C.3          1 AOI602   0.0000
    10 C9          21.6850   -31.0330     4.0770 C.3          1 AOI602   0.0000
    11 C10         22.6420   -30.2840     3.1340 C.3          1 AOI602   0.0000
    12 C11         22.2480   -31.3000     5.4970 C.3          1 AOI602   0.0000
    13 C12         21.2610   -32.0370     6.4010 C.3          1 AOI602   0.0000
    14 C13         19.9560   -31.2540     6.4670 C.3          1 AOI602   0.0000
    15 C14         19.4000   -31.1240     5.0480 C.3          1 AOI602   0.0000
    16 C15         17.9480   -30.6660     5.2370 C.3          1 AOI602   0.0000
    17 C16         17.4760   -31.5040     6.4280 C.3          1 AOI602   0.0000
    18 C17         18.7740   -31.9230     7.1130 C.2          1 AOI602   0.0000
    19 O17         18.8240   -32.6860     8.0770 O.2          1 AOI602   0.0000
    20 C18         20.1480   -29.9210     7.1760 C.3          1 AOI602   0.0000
    21 C19         22.9140   -28.8660     3.6740 C.3          1 AOI602   0.0000
    22 H1          24.4240   -31.0738     3.8697 H            1 AOI602   0.0000
    23 H2          23.7509   -31.9937     2.7004 H            1 AOI602   0.0000
    24 H3          25.7231   -31.0194     1.8700 H            1 AOI602   0.0000
    25 H4          25.1822   -29.5298     2.2638 H            1 AOI602   0.0000
    26 H5          24.8633   -29.7947    -0.0272 H            1 AOI602   0.0000
    27 H6          23.6393   -31.5578    -0.8623 H            1 AOI602   0.0000
    28 H7          22.4517   -29.6577    -0.2178 H            1 AOI602   0.0000
    29 H8          23.0594   -28.6463     0.9111 H            1 AOI602   0.0000
    30 H9          21.8519   -31.1934     1.4522 H            1 AOI602   0.0000
    31 H10         20.2488   -29.6074     0.8087 H            1 AOI602   0.0000
    32 H11         20.7564   -28.5973     1.9871 H            1 AOI602   0.0000
    33 H12         19.4685   -31.1391     2.3742 H            1 AOI602   0.0000
    34 H13         18.8517   -29.6796     2.7692 H            1 AOI602   0.0000
    35 H14         20.4252   -29.4200     4.4813 H            1 AOI602   0.0000
    36 H15         21.5349   -31.9314     3.6642 H            1 AOI602   0.0000
    37 H16         22.4742   -30.4227     5.9204 H            1 AOI602   0.0000
    38 H17         23.0769   -31.8529     5.4125 H            1 AOI602   0.0000
    39 H18         21.6474   -32.1200     7.3196 H            1 AOI602   0.0000
    40 H19         21.0849   -32.9487     6.0298 H            1 AOI602   0.0000
    41 H20         19.3538   -32.0528     4.6804 H            1 AOI602   0.0000
    42 H21         17.4012   -30.8590     4.4223 H            1 AOI602   0.0000
    43 H22         17.9033   -29.6888     5.4447 H            1 AOI602   0.0000
    44 H23         16.9613   -32.3040     6.1195 H            1 AOI602   0.0000
    45 H24         16.9074   -30.9592     7.0443 H            1 AOI602   0.0000
    46 H25         19.2773   -29.4301     7.2044 H            1 AOI602   0.0000
    47 H26         20.4699   -30.0829     8.1088 H            1 AOI602   0.0000
    48 H27         20.8230   -29.3742     6.6806 H            1 AOI602   0.0000
    49 H28         22.0488   -28.3733     3.7677 H            1 AOI602   0.0000
    50 H29         23.3600   -28.9292     4.5668 H            1 AOI602   0.0000
    51 H30         23.5096   -28.3756     3.0378 H            1 AOI602   0.0000
@<TRIPOS>BOND
     1    1    2       1
     2    1   11       1
     3    2    3       1
     4    3    4       1
     5    3    5       1
     6    5    6       1
     7    6    7       1
     8    6   11       1
     9    7    8       1
    10    8    9       1
    11    9   10       1
    12    9   15       1
    13   10   11       1
    14   10   12       1
    15   11   21       1
    16   12   13       1
    17   13   14       1
    18   14   15       1
    19   14   18       1
    20   14   20       1
    21   15   16       1
    22   16   17       1
    23   17   18       1
    24   18   19       2
    25    1   22       1
    26    1   23       1
    27    2   24       1
    28    2   25       1
    29    3   26       1
    30    4   27       1
    31    5   28       1
    32    5   29       1
    33    6   30       1
    34    7   31       1
    35    7   32       1
    36    8   33       1
    37    8   34       1
    38    9   35       1
    39   10   36       1
    40   12   37       1
    41   12   38       1
    42   13   39       1
    43   13   40       1
    44   15   41       1
    45   16   42       1
    46   16   43       1
    47   17   44       1
    48   17   45       1
    49   20   46       1
    50   20   47       1
    51   20   48       1
    52   21   49       1
    53   21   50       1
    54   21   51       1
@<TRIPOS>SUBSTRUCTURE
     1 AOI602      1 GROUP             4 A     AOI     0 **** AOI A 602
