@<TRIPOS>MOLECULE
1ky2_GNP_1_ligand
   45    47     1     0     0
SMALL
NO_CHARGES


@<TRIPOS>ATOM
     1 PG         -10.6290    21.7750     7.2420 P.3          1 GNP400   0.0000
     2 O1G        -10.0490    22.1330     5.9570 O.co2        1 GNP400   0.0000
     3 O2G         -9.7410    20.9450     8.1090 O.co2        1 GNP400  -1.0000
     4 O3G        -11.9870    21.0680     6.9720 O.co2        1 GNP400  -1.0000
     5 N3B        -11.0430    23.1890     8.1440 N.3          1 GNP400   0.0000
     6 PB          -9.8140    24.3140     8.4580 P.3          1 GNP400   0.0000
     7 O1B         -9.0740    23.9780     9.7080 O.co2        1 GNP400   0.0000
     8 O2B         -9.0440    24.6650     7.2290 O.co2        1 GNP400  -1.0000
     9 O3A        -10.6930    25.5960     8.8130 O.3          1 GNP400   0.0000
    10 PA         -10.9970    26.9110     7.9140 P.3          1 GNP400   0.0000
    11 O1A         -9.7180    27.7830     7.6750 O.co2        1 GNP400   0.0000
    12 O2A        -11.6860    26.4920     6.6160 O.co2        1 GNP400  -1.0000
    13 O5'        -11.9940    27.7490     8.9570 O.3          1 GNP400   0.0000
    14 C5'        -13.0080    27.0850     9.5960 C.3          1 GNP400   0.0000
    15 C4'        -14.0110    28.1390    10.2040 C.3          1 GNP400   0.0000
    16 O4'        -13.3360    28.6980    11.2100 O.3          1 GNP400   0.0000
    17 C3'        -14.4980    28.8670     9.2480 C.3          1 GNP400   0.0000
    18 O3'        -15.8790    29.1490     9.6950 O.3          1 GNP400   0.0000
    19 C2'        -13.5890    30.0550     9.4510 C.3          1 GNP400   0.0000
    20 O2'        -14.2040    31.3590     8.9980 O.3          1 GNP400   0.0000
    21 C1'        -13.6310    30.0310    10.7660 C.3          1 GNP400   0.0000
    22 N9         -12.2540    30.8390    11.2810 N.pl3        1 GNP400   0.0000
    23 C8         -10.9900    30.6370    10.7630 C.2          1 GNP400   0.0000
    24 N7         -10.1020    31.4020    11.3520 N.2          1 GNP400   0.0000
    25 C5         -10.8080    32.1310    12.2910 C.2          1 GNP400   0.0000
    26 C6         -10.3720    33.1150    13.2200 C.2          1 GNP400   0.0000
    27 O6          -9.2190    33.5410    13.3890 O.2          1 GNP400   0.0000
    28 N1         -11.4040    33.6190    14.0040 N.pl3        1 GNP400   0.0000
    29 C2         -12.7150    33.2090    13.8890 C.2          1 GNP400   0.0000
    30 N2         -13.6010    33.7850    14.7120 N.pl3        1 GNP400   0.0000
    31 N3         -13.1430    32.2910    13.0260 N.2          1 GNP400   0.0000
    32 C4         -12.1390    31.7970    12.2620 C.2          1 GNP400   0.0000
    33 H3B        -11.7617    23.6658     7.6380 H            1 GNP400   0.0000
    34 H5'1       -12.6290    26.5211    10.3298 H            1 GNP400   0.0000
    35 H5'2       -13.4904    26.5016     8.9426 H            1 GNP400   0.0000
    36 H4'        -14.7715    27.6280    10.6047 H            1 GNP400   0.0000
    37 H3'        -14.4356    28.4509     8.3408 H            1 GNP400   0.0000
    38 H6         -16.3418    29.7137     9.0117 H            1 GNP400   0.0000
    39 H2'        -12.6691    29.9097     9.0869 H            1 GNP400   0.0000
    40 H8         -13.8430    32.1084     9.5530 H            1 GNP400   0.0000
    41 H1'        -14.4784    30.4014    11.1464 H            1 GNP400   0.0000
    42 H10        -10.7783    29.9892    10.0312 H            1 GNP400   0.0000
    43 H11        -11.1835    34.3153    14.6870 H            1 GNP400   0.0000
    44 H12        -14.5654    33.5239    14.6702 H            1 GNP400   0.0000
    45 H13        -13.2981    34.4761    15.3682 H            1 GNP400   0.0000
@<TRIPOS>BOND
     1    1    2      ar
     2    1    3      ar
     3    1    4      ar
     4    1    5       1
     5    5    6       1
     6    6    7      ar
     7    6    8      ar
     8    6    9       1
     9    9   10       1
    10   10   11      ar
    11   10   12      ar
    12   10   13       1
    13   13   14       1
    14   14   15       1
    15   15   16       1
    16   15   17       1
    17   16   21       1
    18   17   18       1
    19   17   19       1
    20   19   20       1
    21   19   21       1
    22   21   22       1
    23   22   23       1
    24   22   32       1
    25   23   24       2
    26   24   25       1
    27   25   26       1
    28   25   32       2
    29   26   27       2
    30   26   28       1
    31   28   29       1
    32   29   30       1
    33   29   31       2
    34   31   32       1
    35   30   45       1
    36   30   44       1
    37    5   33       1
    38   28   43       1
    39   23   42       1
    40   14   34       1
    41   14   35       1
    42   15   36       1
    43   17   37       1
    44   18   38       1
    45   19   39       1
    46   20   40       1
    47   21   41       1
@<TRIPOS>SUBSTRUCTURE
     1 GNP400      1 GROUP             4 A     GNP     0 **** GNP A 400
