@<TRIPOS>MOLECULE
3e23_SAM_1_ligand
   50    52     1     0     0
SMALL
NO_CHARGES


@<TRIPOS>ATOM
     1 N           -6.2710    43.4390     6.1920 N.4          1 SAM221   1.0000
     2 CA          -4.9950    44.0730     5.6490 C.3          1 SAM221   0.0000
     3 C           -3.8020    43.2680     5.2260 C.2          1 SAM221   0.0000
     4 O           -3.0700    43.6550     4.3390 O.co2        1 SAM221   0.0000
     5 OXT         -3.6040    42.1660     5.7930 O.co2        1 SAM221  -1.0000
     6 CB          -4.5070    45.4790     6.1800 C.3          1 SAM221   0.0000
     7 CG          -3.6760    45.2100     7.4820 C.3          1 SAM221   0.0000
     8 SD          -2.9660    46.6830     8.2150 S.3          1 SAM221   1.0000
     9 CE          -1.7090    45.8490     9.1520 C.3          1 SAM221   0.0000
    10 C5'         -3.8420    47.2130     9.6650 C.3          1 SAM221   0.0000
    11 C4'         -5.2680    47.7700     9.0370 C.3          1 SAM221   0.0000
    12 O4'         -6.1180    48.0920    10.1820 O.3          1 SAM221   0.0000
    13 C3'         -4.9860    49.0910     8.1470 C.3          1 SAM221   0.0000
    14 O3'         -5.5300    49.1020     6.8260 O.3          1 SAM221   0.0000
    15 C2'         -5.4920    50.2200     9.0440 C.3          1 SAM221   0.0000
    16 O2'         -5.9980    51.3560     8.2530 O.3          1 SAM221   0.0000
    17 C1'         -6.6940    49.5220     9.8130 C.3          1 SAM221   0.0000
    18 N9          -6.8780    50.3610    10.8370 N.pl3        1 SAM221   0.0000
    19 C8          -5.9750    50.7270    11.8430 C.2          1 SAM221   0.0000
    20 N7          -6.7830    51.1000    12.9390 N.2          1 SAM221   0.0000
    21 C5          -8.0720    50.8030    12.7400 C.ar         1 SAM221   0.0000
    22 C6          -9.3370    51.0690    13.4380 C.ar         1 SAM221   0.0000
    23 N6          -9.2820    51.4610    14.6520 N.pl3        1 SAM221   0.0000
    24 N1         -10.5010    50.9150    12.7600 N.ar         1 SAM221   0.0000
    25 C2         -10.4780    50.3370    11.5710 C.ar         1 SAM221   0.0000
    26 N3          -9.4070    50.2650    10.7640 N.ar         1 SAM221   0.0000
    27 C4          -8.1530    50.4400    11.2850 C.ar         1 SAM221   0.0000
    28 H1          -6.9328    44.1562     6.4103 H            1 SAM221   0.0000
    29 H2          -6.6583    42.8266     5.5028 H            1 SAM221   0.0000
    30 HA          -5.3269    44.3504     4.7474 H            1 SAM221   0.0000
    31 HB1         -5.2938    46.0601     6.3880 H            1 SAM221   0.0000
    32 HB2         -3.9346    45.9264     5.4929 H            1 SAM221   0.0000
    33 HG1         -2.9315    44.5821     7.2551 H            1 SAM221   0.0000
    34 HG2         -4.2784    44.7829     8.1563 H            1 SAM221   0.0000
    35 HE1         -1.1712    46.5213     9.6607 H            1 SAM221   0.0000
    36 HE2         -2.1381    45.2119     9.7923 H            1 SAM221   0.0000
    37 HE3         -1.1098    45.3441     8.5306 H            1 SAM221   0.0000
    38 H5'1        -3.3475    47.9407    10.1403 H            1 SAM221   0.0000
    39 H5'2        -3.9969    46.4502    10.2928 H            1 SAM221   0.0000
    40 H4'         -5.6979    47.0620     8.4767 H            1 SAM221   0.0000
    41 H3'         -3.9946    49.1929     8.0652 H            1 SAM221   0.0000
    42 H15         -6.5250    49.0143     6.8745 H            1 SAM221   0.0000
    43 H2'         -4.7817    50.5161     9.6826 H            1 SAM221   0.0000
    44 H17         -6.7541    51.0492     7.6750 H            1 SAM221   0.0000
    45 H1'         -7.5103    49.4547     9.2392 H            1 SAM221   0.0000
    46 H19         -4.9761    50.7246    11.7954 H            1 SAM221   0.0000
    47 H20        -10.1253    51.6505    15.1549 H            1 SAM221   0.0000
    48 H21         -8.3956    51.5785    15.0998 H            1 SAM221   0.0000
    49 H22        -11.3268    49.9197    11.2464 H            1 SAM221   0.0000
    50 H23         -6.0587    42.9184     7.0190 H            1 SAM221   0.0000
@<TRIPOS>BOND
     1    1    2       1
     2    2    3       1
     3    2    6       1
     4    3    4      ar
     5    3    5      ar
     6    6    7       1
     7    7    8       1
     8    8    9       1
     9    8   10       1
    10   10   11       1
    11   11   12       1
    12   11   13       1
    13   12   17       1
    14   13   14       1
    15   13   15       1
    16   15   16       1
    17   15   17       1
    18   17   18       1
    19   18   19       1
    20   18   27       1
    21   19   20       2
    22   20   21       1
    23   21   22      ar
    24   21   27      ar
    25   22   23       1
    26   22   24      ar
    27   24   25      ar
    28   25   26      ar
    29   26   27      ar
    30    1   28       1
    31    1   29       1
    32    2   30       1
    33    1   50       1
    34    6   31       1
    35    6   32       1
    36    7   33       1
    37    7   34       1
    38    9   35       1
    39    9   36       1
    40    9   37       1
    41   10   38       1
    42   10   39       1
    43   11   40       1
    44   13   41       1
    45   14   42       1
    46   15   43       1
    47   16   44       1
    48   17   45       1
    49   19   46       1
    50   23   47       1
    51   23   48       1
    52   25   49       1
@<TRIPOS>SUBSTRUCTURE
     1 SAM221      1 GROUP             4 A     SAM     0 **** SAM A 221
