@<TRIPOS>MOLECULE
1pag_FMP_1_ligand
   35    37     1     0     0
SMALL
NO_CHARGES


@<TRIPOS>ATOM
     1 P            5.9040    24.0920    28.7650 P.3          1 FMP263   0.0000
     2 O1P          5.3600    22.8360    29.3050 O.co2        1 FMP263   0.0000
     3 O2P          5.0060    25.3030    28.6450 O.co2        1 FMP263  -1.0000
     4 O3P          7.1260    24.6280    29.7840 O.co2        1 FMP263  -1.0000
     5 O5'          6.5240    23.6930    27.3270 O.3          1 FMP263   0.0000
     6 C5'          5.6180    23.0670    26.3680 C.3          1 FMP263   0.0000
     7 C4'          5.9320    22.9370    24.8700 C.3          1 FMP263   0.0000
     8 O4'          6.5940    24.1040    24.3900 O.3          1 FMP263   0.0000
     9 C3'          6.5400    21.6820    24.4500 C.3          1 FMP263   0.0000
    10 O3'          5.8640    21.1470    23.3120 O.3          1 FMP263   0.0000
    11 C2'          7.7910    22.2670    23.8510 C.3          1 FMP263   0.0000
    12 O2'          8.3300    21.4170    22.8920 O.3          1 FMP263   0.0000
    13 C1'          7.3750    23.6130    23.3720 C.3          1 FMP263   0.0000
    14 C9           8.6830    24.4660    23.1320 C.2          1 FMP263   0.0000
    15 N8           8.9060    25.6300    23.7910 N.2          1 FMP263   0.0000
    16 N7          10.0470    26.0340    23.3120 N.pl3        1 FMP263   0.0000
    17 C6          11.8520    25.0970    21.6940 C.ar         1 FMP263   0.0000
    18 N6          12.7860    25.9930    21.8140 N.pl3        1 FMP263   0.0000
    19 C5          10.6100    25.1850    22.4130 C.ar         1 FMP263   0.0000
    20 C4           9.7170    24.1540    22.3530 C.ar         1 FMP263   0.0000
    21 N3           9.9740    23.1250    21.4540 N.ar         1 FMP263   0.0000
    22 C2          11.1240    23.1710    20.7950 C.ar         1 FMP263   0.0000
    23 N1          12.0830    24.0680    20.8550 N.ar         1 FMP263   0.0000
    24 H5'1         4.7617    23.5804    26.4248 H            1 FMP263   0.0000
    25 H5'2         5.4704    22.1349    26.6988 H            1 FMP263   0.0000
    26 H4'          5.0385    22.9491    24.4212 H            1 FMP263   0.0000
    27 H3'          6.6976    21.0265    25.1886 H            1 FMP263   0.0000
    28 H5           6.5070    21.0646    22.5506 H            1 FMP263   0.0000
    29 H2'          8.4642    22.3862    24.5808 H            1 FMP263   0.0000
    30 H7           9.1581    21.8276    22.5103 H            1 FMP263   0.0000
    31 H1'          6.8449    23.5372    22.5275 H            1 FMP263   0.0000
    32 H9          10.4734    26.8970    23.5830 H            1 FMP263   0.0000
    33 H10         13.6377    25.8996    21.2983 H            1 FMP263   0.0000
    34 H11         12.6529    26.7757    22.4220 H            1 FMP263   0.0000
    35 H12         11.2847    22.4144    20.1612 H            1 FMP263   0.0000
@<TRIPOS>BOND
     1    1    2      ar
     2    1    3      ar
     3    1    4      ar
     4    1    5       1
     5    5    6       1
     6    6    7       1
     7    7    8       1
     8    7    9       1
     9    8   13       1
    10    9   10       1
    11    9   11       1
    12   11   12       1
    13   11   13       1
    14   13   14       1
    15   14   15       2
    16   14   20       1
    17   15   16       1
    18   16   19       1
    19   17   18       1
    20   17   19      ar
    21   17   23      ar
    22   19   20      ar
    23   20   21      ar
    24   21   22      ar
    25   22   23      ar
    26   22   35       1
    27   18   34       1
    28    6   24       1
    29    6   25       1
    30    7   26       1
    31    9   27       1
    32   10   28       1
    33   11   29       1
    34   12   30       1
    35   13   31       1
    36   16   32       1
    37   18   33       1
@<TRIPOS>SUBSTRUCTURE
     1 FMP263      1 GROUP             4 A     FMP     0 **** FMP A 263
