@<TRIPOS>MOLECULE
2zeb_11M_2_ligand
   54    58     1     0     0
SMALL
NO_CHARGES


@<TRIPOS>ATOM
     1 C4          46.0150  -111.5450   -82.4570 C.ar         1 11M244   0.0000
     2 C5          46.2750  -112.2100   -81.1910 C.ar         1 11M244   0.0000
     3 C6          45.1570  -112.7750   -80.4100 C.ar         1 11M244   0.0000
     4 C8          42.7280  -110.5340   -83.8540 C.3          1 11M244   0.0000
     5 C10         41.7750  -113.0300   -83.5100 C.3          1 11M244   0.0000
     6 C13         39.8950  -110.9130   -82.5280 C.3          1 11M244   0.0000
     7 C15         42.2760  -111.6610   -82.9470 C.3          1 11M244   0.0000
     8 C17         38.4340  -112.9410   -82.4380 C.2          1 11M244   0.0000
     9 C22         37.1490  -116.6050   -83.4770 C.2          1 11M244   0.0000
    10 C24         36.5130  -116.2980   -86.0160 C.2          1 11M244   0.0000
    11 C26         36.8810  -113.8650   -86.9130 C.2          1 11M244   0.0000
    12 C1          43.7930  -112.6650   -80.8970 C.ar         1 11M244   0.0000
    13 C2          43.5360  -112.0150   -82.1510 C.ar         1 11M244   0.0000
    14 C3          44.6720  -111.4300   -82.9290 C.ar         1 11M244   0.0000
    15 O13         44.1090  -110.8230   -84.1420 O.3          1 11M244   0.0000
    16 C11         40.3520  -112.8520   -84.0970 C.3          1 11M244   0.0000
    17 N22         39.4610  -112.1640   -83.1340 N.am         1 11M244   0.0000
    18 C14         41.2910  -111.0780   -81.8880 C.3          1 11M244   0.0000
    19 O61         38.0170  -112.6170   -81.3870 O.2          1 11M244   0.0000
    20 C30         45.4400  -113.4560   -79.0470 C.3          1 11M244   0.0000
    21 N64         44.9180  -112.5940   -77.9690 N.4          1 11M244   1.0000
    22 C39         37.9130  -114.2210   -83.0690 C.2          1 11M244   0.0000
    23 C41         37.4500  -114.3450   -84.5380 C.2          1 11M244   0.0000
    24 C42         36.9790  -115.8810   -84.7690 C.2          1 11M244   0.0000
    25 S44         37.7440  -115.5770   -82.3340 S.3          1 11M244   0.0000
    26 C25         36.4460  -115.3170   -87.1300 C.2          1 11M244   0.0000
    27 C27         37.3860  -113.4330   -85.5800 C.2          1 11M244   0.0000
    28 S59         36.7540  -118.3530   -83.2470 S.3          1 11M244   0.0000
    29 C29         35.2620  -118.4990   -82.1970 C.3          1 11M244   0.0000
    30 H1          46.7712  -111.1706   -82.9937 H            1 11M244   0.0000
    31 H2          47.2117  -112.2848   -80.8489 H            1 11M244   0.0000
    32 H3          42.6422  -109.6525   -83.3897 H            1 11M244   0.0000
    33 H4          42.1881  -110.5214   -84.6956 H            1 11M244   0.0000
    34 H5          41.7503  -113.7054   -82.7730 H            1 11M244   0.0000
    35 H6          42.3960  -113.3432   -84.2285 H            1 11M244   0.0000
    36 H7          39.2392  -110.6441   -81.8226 H            1 11M244   0.0000
    37 H8          39.9373  -110.2037   -83.2316 H            1 11M244   0.0000
    38 H9          36.2275  -117.2457   -86.1585 H            1 11M244   0.0000
    39 H10         36.8261  -113.2080   -87.6649 H            1 11M244   0.0000
    40 H11         43.0365  -113.0403   -80.3613 H            1 11M244   0.0000
    41 H12         39.9711  -113.7520   -84.3091 H            1 11M244   0.0000
    42 H13         40.4096  -112.3086   -84.9345 H            1 11M244   0.0000
    43 H14         41.2300  -111.7020   -81.1090 H            1 11M244   0.0000
    44 H15         41.6234  -110.1877   -81.5767 H            1 11M244   0.0000
    45 H16         46.4255  -113.5799   -78.9311 H            1 11M244   0.0000
    46 H17         44.9860  -114.3465   -79.0152 H            1 11M244   0.0000
    47 H18         45.0950  -113.0236   -77.0835 H            1 11M244   0.0000
    48 H19         45.3724  -111.7039   -78.0044 H            1 11M244   0.0000
    49 H20         36.1145  -115.6071   -88.0277 H            1 11M244   0.0000
    50 H21         37.6782  -112.4874   -85.4371 H            1 11M244   0.0000
    51 H22         35.0393  -119.4651   -82.0668 H            1 11M244   0.0000
    52 H23         35.4368  -118.0745   -81.3086 H            1 11M244   0.0000
    53 H24         34.4948  -118.0371   -82.6420 H            1 11M244   0.0000
    54 H25         43.9329  -112.4704   -78.0886 H            1 11M244   0.0000
@<TRIPOS>BOND
     1    1    2      ar
     2    1   14      ar
     3    2    3      ar
     4    3   12      ar
     5    3   20       1
     6    4    7       1
     7    4   15       1
     8    5    7       1
     9    5   16       1
    10    6   17       1
    11    6   18       1
    12    7   13       1
    13    7   18       1
    14    8   17      am
    15    8   19       2
    16    8   22       1
    17    9   24       2
    18    9   25       1
    19    9   28       1
    20   10   24       1
    21   10   26       2
    22   11   26       1
    23   11   27       2
    24   12   13      ar
    25   13   14      ar
    26   14   15       1
    27   16   17       1
    28   20   21       1
    29   22   23       2
    30   22   25       1
    31   23   24       1
    32   23   27       1
    33   28   29       1
    34    1   30       1
    35    2   31       1
    36    4   32       1
    37    4   33       1
    38    5   34       1
    39    5   35       1
    40    6   36       1
    41    6   37       1
    42   10   38       1
    43   11   39       1
    44   12   40       1
    45   16   41       1
    46   16   42       1
    47   18   43       1
    48   18   44       1
    49   20   45       1
    50   20   46       1
    51   21   47       1
    52   21   48       1
    53   26   49       1
    54   27   50       1
    55   29   51       1
    56   29   52       1
    57   29   53       1
    58   21   54       1
@<TRIPOS>SUBSTRUCTURE
     1 11M244      1 GROUP             4 B     11M     0 **** 11M B 244
