@<TRIPOS>MOLECULE
4d6q_PD2_1_ligand
   15    15     1     0     0
SMALL
NO_CHARGES


@<TRIPOS>ATOM
     1 O42         11.2130    -0.3450    19.8260 O.co2        1 PD21343   0.0000
     2 C41         11.3330    -1.5520    20.0240 C.2          1 PD21343   0.0000
     3 O41         12.5490    -2.0160    20.3610 O.co2        1 PD21343  -1.0000
     4 C4          10.2360    -2.5120    19.8870 C.ar         1 PD21343   0.0000
     5 C5           9.2830    -2.2480    18.9250 C.ar         1 PD21343   0.0000
     6 C6           8.2330    -3.1470    18.7850 C.ar         1 PD21343   0.0000
     7 C3          10.1420    -3.6420    20.6980 C.ar         1 PD21343   0.0000
     8 C2           9.0380    -4.4690    20.4910 C.ar         1 PD21343   0.0000
     9 N1           8.0890    -4.2540    19.5430 N.ar         1 PD21343   0.0000
    10 C21          8.8060    -5.6240    21.4000 C.2          1 PD21343   0.0000
    11 O21          9.6150    -6.0840    22.2020 O.co2        1 PD21343   0.0000
    12 O22          7.5580    -6.1360    21.2840 O.co2        1 PD21343  -1.0000
    13 H1           9.3460    -1.4348    18.3464 H            1 PD21343   0.0000
    14 H2           7.5451    -2.9633    18.0828 H            1 PD21343   0.0000
    15 H3          10.8309    -3.8491    21.3927 H            1 PD21343   0.0000
@<TRIPOS>BOND
     1    1    2      ar
     2    2    3      ar
     3    2    4       1
     4    4    5      ar
     5    4    7      ar
     6    5    6      ar
     7    6    9      ar
     8    7    8      ar
     9    8    9      ar
    10    8   10       1
    11   10   11      ar
    12   10   12      ar
    13    7   15       1
    14    5   13       1
    15    6   14       1
@<TRIPOS>SUBSTRUCTURE
     1 PD21343     1 GROUP             4 A     PD2     0 **** PD2 A1343
