@<TRIPOS>MOLECULE
1zsn_TN2_2_ligand
   26    27     1     0     0
SMALL
NO_CHARGES


@<TRIPOS>ATOM
     1 O19          7.7200   103.6660    24.8460 O.co2        1 TN2501   0.0000
     2 N17          8.2780   102.8190    24.1710 N.2          1 TN2501   1.0000
     3 O18          8.1740   102.8860    22.9550 O.co2        1 TN2501  -1.0000
     4 C14          9.0770   101.8420    24.7980 C.ar         1 TN2501   0.0000
     5 C13          9.0870   101.7210    26.1860 C.ar         1 TN2501   0.0000
     6 C11          9.9210   100.7730    26.7580 C.ar         1 TN2501   0.0000
     7 CL12         9.9460   100.5750    28.5260 Cl           1 TN2501   0.0000
     8 C15          9.9140   101.0210    24.0340 C.ar         1 TN2501   0.0000
     9 C16         10.7410   100.0600    24.6190 C.ar         1 TN2501   0.0000
    10 C10         10.7300    99.9450    25.9950 C.ar         1 TN2501   0.0000
    11 O9          11.5230    99.0390    26.6380 O.3          1 TN2501   0.0000
    12 C6          11.9640    97.8760    26.0800 C.ar         1 TN2501   0.0000
    13 C4          13.2750    97.8040    25.6290 C.ar         1 TN2501   0.0000
    14 O5          14.1200    98.8760    25.7150 O.3          1 TN2501   0.0000
    15 C3          13.7240    96.6120    25.0740 C.ar         1 TN2501   0.0000
    16 C7          11.1090    96.7710    26.0030 C.ar         1 TN2501   0.0000
    17 C8          11.5630    95.5820    25.4400 C.ar         1 TN2501   0.0000
    18 C2          12.8750    95.5110    24.9760 C.ar         1 TN2501   0.0000
    19 CL20        13.5090    94.0070    24.2320 Cl           1 TN2501   0.0000
    20 H1           8.5070   102.3036    26.7554 H            1 TN2501   0.0000
    21 H2           9.9200   101.1257    23.0395 H            1 TN2501   0.0000
    22 H3          11.3241    99.4724    24.0580 H            1 TN2501   0.0000
    23 H4          15.0602    98.7994    25.3832 H            1 TN2501   0.0000
    24 H5          14.6647    96.5434    24.7419 H            1 TN2501   0.0000
    25 H6          10.1740    96.8355    26.3517 H            1 TN2501   0.0000
    26 H7          10.9565    94.7901    25.3695 H            1 TN2501   0.0000
@<TRIPOS>BOND
     1    1    2      ar
     2    2    3      ar
     3    2    4       1
     4    4    5      ar
     5    4    8      ar
     6    5    6      ar
     7    6    7       1
     8    6   10      ar
     9    8    9      ar
    10    9   10      ar
    11   10   11       1
    12   11   12       1
    13   12   13      ar
    14   12   16      ar
    15   13   14       1
    16   13   15      ar
    17   15   18      ar
    18   16   17      ar
    19   17   18      ar
    20   18   19       1
    21    5   20       1
    22    8   21       1
    23    9   22       1
    24   14   23       1
    25   15   24       1
    26   16   25       1
    27   17   26       1
@<TRIPOS>SUBSTRUCTURE
     1 TN2501      1 GROUP             4 B     TN2     0 **** TN2 B 501
