@<TRIPOS>MOLECULE
4kba_1QM_4_ligand
   42    45     1     0     0
SMALL
NO_CHARGES


@<TRIPOS>ATOM
     1 N3          19.8530   -47.1930     4.6420 N.pl3        1 1QM401   0.0000
     2 C4          20.8880   -46.3630     6.4330 C.2          1 1QM401   0.0000
     3 N2          21.1530   -47.5660     4.4880 N.2          1 1QM401   0.0000
     4 C7          24.0420   -47.3350     4.6100 C.ar         1 1QM401   0.0000
     5 C6          23.2200   -47.3510     5.7400 C.ar         1 1QM401   0.0000
     6 C9          25.8910   -48.0200     5.9690 C.ar         1 1QM401   0.0000
     7 C13         18.8310   -47.5850     3.6620 C.3          1 1QM401   0.0000
     8 C8          25.3820   -47.6690     4.7130 C.ar         1 1QM401   0.0000
     9 C18         19.7690   -44.9680    11.1400 C.3          1 1QM401   0.0000
    10 C16         17.9590   -45.2260     8.6740 C.3          1 1QM401   0.0000
    11 C1          21.1760   -45.6540     7.6530 C.ar         1 1QM401   0.0000
    12 C2          22.4150   -45.0310     7.8080 C.ar         1 1QM401   0.0000
    13 C3          22.7000   -44.3710     9.0060 C.ar         1 1QM401   0.0000
    14 N1          21.8620   -44.3380    10.0650 N.ar         1 1QM401   0.0000
    15 C5          21.8050   -47.0700     5.5860 C.2          1 1QM401   0.0000
    16 C10         25.0830   -48.0440     7.1070 C.ar         1 1QM401   0.0000
    17 C11         23.7410   -47.7040     6.9820 C.ar         1 1QM401   0.0000
    18 F1          27.1760   -48.3340     6.0770 F            1 1QM401   0.0000
    19 C12         19.6430   -46.4650     5.8060 C.2          1 1QM401   0.0000
    20 C14         20.6570   -44.9400     9.9170 C.ar         1 1QM401   0.0000
    21 C15         20.2620   -45.5460     8.7130 C.ar         1 1QM401   0.0000
    22 O1          19.0340   -46.1350     8.5930 O.3          1 1QM401   0.0000
    23 N4          18.4800   -44.2850    10.9640 N.4          1 1QM401   1.0000
    24 C17         17.5230   -45.0240    10.1390 C.3          1 1QM401   0.0000
    25 H1          23.6602   -47.0808     3.7214 H            1 1QM401   0.0000
    26 H2          17.9429   -47.2209     3.9428 H            1 1QM401   0.0000
    27 H3          19.0726   -47.2183     2.7636 H            1 1QM401   0.0000
    28 H4          18.7818   -48.5826     3.6126 H            1 1QM401   0.0000
    29 H5          25.9737   -47.6597     3.9069 H            1 1QM401   0.0000
    30 H6          20.2577   -44.5266    11.8926 H            1 1QM401   0.0000
    31 H7          19.5884   -45.9232    11.3746 H            1 1QM401   0.0000
    32 H8          17.1870   -45.5834     8.1484 H            1 1QM401   0.0000
    33 H9          18.2436   -44.3466     8.2923 H            1 1QM401   0.0000
    34 H10         23.0903   -45.0566     7.0709 H            1 1QM401   0.0000
    35 H11         23.5760   -43.8950     9.0841 H            1 1QM401   0.0000
    36 H12         25.4626   -48.3010     7.9957 H            1 1QM401   0.0000
    37 H13         23.1477   -47.7130     7.7869 H            1 1QM401   0.0000
    38 H14         18.7750   -46.0891     6.1305 H            1 1QM401   0.0000
    39 H15         18.6497   -43.3993    10.5318 H            1 1QM401   0.0000
    40 H16         17.3869   -45.9250    10.5508 H            1 1QM401   0.0000
    41 H17         16.6577   -44.5227    10.1405 H            1 1QM401   0.0000
    42 H18         18.0734   -44.1430    11.8665 H            1 1QM401   0.0000
@<TRIPOS>BOND
     1    1    3       1
     2    1    7       1
     3    1   19       1
     4    2   11       1
     5    2   15       1
     6    2   19       2
     7    3   15       2
     8    4    5      ar
     9    4    8      ar
    10    5   15       1
    11    5   17      ar
    12    6    8      ar
    13    6   16      ar
    14    6   18       1
    15    9   20       1
    16    9   23       1
    17   10   22       1
    18   10   24       1
    19   11   12      ar
    20   11   21      ar
    21   12   13      ar
    22   13   14      ar
    23   14   20      ar
    24   16   17      ar
    25   20   21      ar
    26   21   22       1
    27   23   24       1
    28    4   25       1
    29    7   26       1
    30    7   27       1
    31    7   28       1
    32    8   29       1
    33    9   30       1
    34    9   31       1
    35   10   32       1
    36   10   33       1
    37   12   34       1
    38   13   35       1
    39   16   36       1
    40   17   37       1
    41   19   38       1
    42   23   39       1
    43   24   40       1
    44   24   41       1
    45   23   42       1
@<TRIPOS>SUBSTRUCTURE
     1 1QM401      1 GROUP             4 D     1QM     0 **** 1QM D 401
