@<TRIPOS>MOLECULE
1pr1_FMB_2_ligand
   31    33     1     0     0
SMALL
NO_CHARGES


@<TRIPOS>ATOM
     1 N1          73.8330    37.2610    -4.3120 N.pl3        1 FMB246   0.0000
     2 C2          73.9450    36.2470    -3.3310 C.2          1 FMB246   0.0000
     3 N3          74.3900    34.9940    -3.7220 N.2          1 FMB246   0.0000
     4 C4          74.6940    34.8240    -5.0600 C.2          1 FMB246   0.0000
     5 C5          74.5900    35.8070    -6.0620 C.2          1 FMB246   0.0000
     6 C6          74.1400    37.1000    -5.6980 C.2          1 FMB246   0.0000
     7 O6          74.0200    38.0310    -6.4750 O.2          1 FMB246   0.0000
     8 N7          74.9680    35.3510    -7.2930 N.pl3        1 FMB246   0.0000
     9 N8          75.3310    34.0310    -7.0590 N.2          1 FMB246   0.0000
    10 C9          75.1650    33.6750    -5.7030 C.2          1 FMB246   0.0000
    11 C1'         75.4850    32.3210    -5.2490 C.3          1 FMB246   0.0000
    12 C2'         75.5500    32.0060    -3.7160 C.3          1 FMB246   0.0000
    13 O2'         76.8470    31.4720    -3.4860 O.3          1 FMB246   0.0000
    14 C3'         74.4210    31.0110    -3.4080 C.3          1 FMB246   0.0000
    15 O3'         74.8790    29.6830    -3.1030 O.3          1 FMB246   0.0000
    16 C4'         73.6330    30.8670    -4.6890 C.3          1 FMB246   0.0000
    17 O4'         74.3770    31.5350    -5.7320 O.3          1 FMB246   0.0000
    18 C5'         72.2210    31.4550    -4.5470 C.3          1 FMB246   0.0000
    19 O5'         71.7330    31.9590    -5.7990 O.3          1 FMB246   0.0000
    20 H1          73.7083    36.4305    -2.3769 H            1 FMB246   0.0000
    21 H2          74.9804    35.8504    -8.1593 H            1 FMB246   0.0000
    22 H1'         76.3287    32.0129    -5.6885 H            1 FMB246   0.0000
    23 H2'         75.4239    32.8448    -3.1863 H            1 FMB246   0.0000
    24 H5          76.9489    31.2498    -2.5163 H            1 FMB246   0.0000
    25 H3'         73.8374    31.3584    -2.6740 H            1 FMB246   0.0000
    26 H7          75.3886    29.3189    -3.8826 H            1 FMB246   0.0000
    27 H4'         73.5581    29.8959    -4.9157 H            1 FMB246   0.0000
    28 H5'1        72.2455    32.2025    -3.8831 H            1 FMB246   0.0000
    29 H5'2        71.6025    30.7400    -4.2212 H            1 FMB246   0.0000
    30 H5'         70.8145    32.3336    -5.6723 H            1 FMB246   0.0000
    31 H12         73.5142    38.1600    -4.0117 H            1 FMB246   0.0000
@<TRIPOS>BOND
     1    1    2       1
     2    1    6       1
     3    2    3       2
     4    3    4       1
     5    4    5       2
     6    4   10       1
     7    5    6       1
     8    5    8       1
     9    6    7       2
    10    8    9       1
    11    9   10       2
    12   10   11       1
    13   11   12       1
    14   11   17       1
    15   12   13       1
    16   12   14       1
    17   14   15       1
    18   14   16       1
    19   16   17       1
    20   16   18       1
    21   18   19       1
    22    2   20       1
    23    1   31       1
    24    8   21       1
    25   11   22       1
    26   12   23       1
    27   13   24       1
    28   14   25       1
    29   15   26       1
    30   16   27       1
    31   18   28       1
    32   18   29       1
    33   19   30       1
@<TRIPOS>SUBSTRUCTURE
     1 FMB246      1 GROUP             4 B     FMB     0 **** FMB B 246
