@<TRIPOS>MOLECULE
2p41_SAH_2_ligand
   46    48     1     0     0
SMALL
NO_CHARGES


@<TRIPOS>ATOM
     1 N          -11.5250    80.1860     6.8290 N.4          1 SAH1012   1.0000
     2 CA         -10.3080    81.0400     6.6030 C.3          1 SAH1012   0.0000
     3 CB          -9.6490    81.2680     7.9630 C.3          1 SAH1012   0.0000
     4 CG         -10.3890    82.2600     8.8540 C.3          1 SAH1012   0.0000
     5 SD         -10.1170    83.9160     8.1970 S.3          1 SAH1012   0.0000
     6 C           -9.2850    80.3070     5.7240 C.2          1 SAH1012   0.0000
     7 O           -8.2500    80.8600     5.2910 O.co2        1 SAH1012   0.0000
     8 OXT         -9.5080    79.1120     5.4620 O.co2        1 SAH1012  -1.0000
     9 C5'        -11.2170    84.6760     9.4190 C.3          1 SAH1012   0.0000
    10 C4'        -11.3060    86.1240     8.9850 C.3          1 SAH1012   0.0000
    11 O4'        -12.5640    86.7440     9.2080 O.3          1 SAH1012   0.0000
    12 C3'        -10.2010    87.0350     9.5510 C.3          1 SAH1012   0.0000
    13 O3'         -9.3590    87.4470     8.4820 O.3          1 SAH1012   0.0000
    14 C2'        -10.9920    88.2100    10.1020 C.3          1 SAH1012   0.0000
    15 O2'        -10.3570    89.4730     9.9990 O.3          1 SAH1012   0.0000
    16 C1'        -12.2980    88.1160     9.3200 C.3          1 SAH1012   0.0000
    17 N9         -13.3710    88.8940     9.9560 N.pl3        1 SAH1012   0.0000
    18 C8         -13.6200    89.0850    11.3020 C.2          1 SAH1012   0.0000
    19 N7         -14.6940    89.9160    11.4050 N.2          1 SAH1012   0.0000
    20 C5         -15.1150    90.2410    10.1530 C.ar         1 SAH1012   0.0000
    21 C6         -16.1640    91.0340     9.6840 C.ar         1 SAH1012   0.0000
    22 N6         -16.9370    91.6890    10.5600 N.pl3        1 SAH1012   0.0000
    23 N1         -16.3430    91.1690     8.3090 N.ar         1 SAH1012   0.0000
    24 C2         -15.5160    90.5130     7.4160 C.ar         1 SAH1012   0.0000
    25 N3         -14.4820    89.7170     7.8890 N.ar         1 SAH1012   0.0000
    26 C4         -14.3020    89.5900     9.2360 C.ar         1 SAH1012   0.0000
    27 H1         -12.3396    80.6790     6.5233 H            1 SAH1012   0.0000
    28 H2         -11.4362    79.3353     6.3109 H            1 SAH1012   0.0000
    29 HA         -10.5649    81.9127     6.1877 H            1 SAH1012   0.0000
    30 HB1         -8.7232    81.6135     7.8096 H            1 SAH1012   0.0000
    31 HB2         -9.6025    80.3907     8.4406 H            1 SAH1012   0.0000
    32 HG1        -10.0369    82.2042     9.7883 H            1 SAH1012   0.0000
    33 HG2        -11.3671    82.0517     8.8533 H            1 SAH1012   0.0000
    34 H5'1       -10.8301    84.6040    10.3383 H            1 SAH1012   0.0000
    35 H5'2       -12.1188    84.2442     9.4021 H            1 SAH1012   0.0000
    36 H4'        -11.1755    86.1203     7.9936 H            1 SAH1012   0.0000
    37 H3'         -9.6804    86.5750    10.2703 H            1 SAH1012   0.0000
    38 H12         -8.4322    87.5968     8.8264 H            1 SAH1012   0.0000
    39 H2'        -11.1885    88.0335    11.0665 H            1 SAH1012   0.0000
    40 H14        -10.6542    90.0580    10.7536 H            1 SAH1012   0.0000
    41 H1'        -12.1434    88.4831     8.4028 H            1 SAH1012   0.0000
    42 H16        -13.1057    88.6861    12.0612 H            1 SAH1012   0.0000
    43 H17        -17.6906    92.2593    10.2331 H            1 SAH1012   0.0000
    44 H18        -16.7605    91.6078    11.5409 H            1 SAH1012   0.0000
    45 H19        -15.6625    90.6118     6.4317 H            1 SAH1012   0.0000
    46 H20        -11.6085    79.9758     7.8031 H            1 SAH1012   0.0000
@<TRIPOS>BOND
     1    1    2       1
     2    2    3       1
     3    2    6       1
     4    3    4       1
     5    4    5       1
     6    5    9       1
     7    6    7      ar
     8    6    8      ar
     9    9   10       1
    10   10   11       1
    11   10   12       1
    12   11   16       1
    13   12   13       1
    14   12   14       1
    15   14   15       1
    16   14   16       1
    17   16   17       1
    18   17   18       1
    19   17   26       1
    20   18   19       2
    21   19   20       1
    22   20   21      ar
    23   20   26      ar
    24   21   22       1
    25   21   23      ar
    26   23   24      ar
    27   24   25      ar
    28   25   26      ar
    29    1   27       1
    30    1   28       1
    31    2   29       1
    32    3   30       1
    33    3   31       1
    34    4   32       1
    35    4   33       1
    36    1   46       1
    37    9   34       1
    38    9   35       1
    39   10   36       1
    40   12   37       1
    41   13   38       1
    42   14   39       1
    43   15   40       1
    44   16   41       1
    45   18   42       1
    46   22   43       1
    47   22   44       1
    48   24   45       1
@<TRIPOS>SUBSTRUCTURE
     1 SAH1012     1 GROUP             4 A     SAH     0 **** SAH A1012
