@<TRIPOS>MOLECULE
./coach420/3ct5/ligand.pdb
 43 45 0 0 0
SMALL
GASTEIGER

@<TRIPOS>ATOM
      1  C1        -5.4630   29.0340    9.2740 C.3   201  NAG201      0.2917
      2  C2        -5.3920   30.4220    8.6610 C.3   201  NAG201      0.1870
      3  C3        -3.9810   30.6580    8.1380 C.3   201  NAG201      0.2063
      4  C4        -2.9600   30.4860    9.2650 C.3   201  NAG201      0.1795
      5  C5        -3.2520   29.2450   10.1150 C.3   201  NAG201      0.1803
      6  C6        -2.5000   29.2840   11.4420 C.3   201  NAG201      0.2141
      7  C7        -7.1900   31.5730    7.6560 C.2   201  NAG201      0.2420
      8  C8        -8.2540   31.5980    6.5920 C.3   201  NAG201      0.0964
      9  N2        -6.3540   30.5520    7.5840 N.am  201  NAG201     -0.1991
     10  O1        -6.7720   28.7770    9.7200 O.3   201  NAG201     -0.1879
     11  O3        -3.8390   31.9720    7.6250 O.3   201  NAG201     -0.2184
     12  O4        -1.7250   30.1810    8.6700 O.3   201  NAG201     -0.3264
     13  O5        -4.6360   29.0850   10.4190 O.3   201  NAG201     -0.3243
     14  O6        -2.8730   30.3730   12.2410 O.3   201  NAG201     -0.2176
     15  O7        -7.1100   32.4320    8.5450 O.2   201  NAG201     -0.2733
     16  C1        -0.8420   31.2970    8.5090 C.3   202  NAG202      0.2586
     17  C2         0.5890   30.7730    8.4590 C.3   202  NAG202      0.1841
     18  C3         1.5820   31.9040    8.2100 C.3   202  NAG202      0.2062
     19  C4         1.1280   32.7980    7.0510 C.3   202  NAG202      0.1795
     20  C5        -0.3570   33.1770    7.1740 C.3   202  NAG202      0.1803
     21  C6        -0.8640   33.9880    5.9750 C.3   202  NAG202      0.2141
     22  C7         1.3450   28.8450    9.7710 C.2   202  NAG202      0.2420
     23  C8         1.5020   28.2980   11.1670 C.3   202  NAG202      0.0964
     24  N2         0.8980   30.0880    9.7250 N.am  202  NAG202     -0.1992
     25  O3         2.8480   31.3090    7.9480 O.3   202  NAG202     -0.2184
     26  O4         1.9340   33.9710    7.1030 O.3   202  NAG202     -0.3264
     27  O5        -1.1470   32.0050    7.3070 O.3   202  NAG202     -0.3263
     28  O6        -0.7930   33.1800    4.8190 O.3   202  NAG202     -0.2176
     29  O7         1.5740   28.1370    8.7820 O.2   202  NAG202     -0.2733
     30  C1         2.6040   34.2680    5.8570 C.3   203  NAG203      0.2586
     31  C2         3.0220   35.7470    5.8990 C.3   203  NAG203      0.1842
     32  C3         3.9320   36.1770    4.7410 C.3   203  NAG203      0.2094
     33  C4         5.0410   35.1630    4.4960 C.3   203  NAG203      0.2136
     34  C5         4.5720   33.7130    4.6090 C.3   203  NAG203      0.1834
     35  C6         5.7780   32.8080    4.7810 C.3   203  NAG203      0.2142
     36  C7         1.4380   37.1470    7.0810 C.2   203  NAG203      0.2420
     37  C8         0.2050   37.9860    6.9360 C.3   203  NAG203      0.0964
     38  N2         1.8280   36.5510    5.9590 N.am  203  NAG203     -0.1992
     39  O3         4.5500   37.4190    5.0260 O.3   203  NAG203     -0.2183
     40  O4         5.5660   35.3540    3.1930 O.3   203  NAG203     -0.2176
     41  O5         3.7600   33.4780    5.7470 O.3   203  NAG203     -0.3262
     42  O6         5.5090   31.6440    4.0510 O.3   203  NAG203     -0.2176
     43  O7         2.0100   37.0440    8.1730 O.2   203  NAG203     -0.2733
@<TRIPOS>BOND
     1     1     2    1
     2     1    10    1
     3     1    13    1
     4     2     9    1
     5     2     3    1
     6     3    11    1
     7     3     4    1
     8     4    12    1
     9     4     5    1
    10     5    13    1
    11     5     6    1
    12     6    14    1
    13     7     8    1
    14     7     9   am
    15     7    15    2
    16    12    16    1
    17    16    27    1
    18    16    17    1
    19    17    18    1
    20    17    24    1
    21    18    19    1
    22    18    25    1
    23    19    26    1
    24    19    20    1
    25    20    21    1
    26    20    27    1
    27    21    28    1
    28    22    29    2
    29    22    24   am
    30    22    23    1
    31    26    30    1
    32    30    41    1
    33    30    31    1
    34    31    32    1
    35    31    38    1
    36    32    33    1
    37    32    39    1
    38    33    40    1
    39    33    34    1
    40    34    35    1
    41    34    41    1
    42    35    42    1
    43    36    38   am
    44    36    37    1
    45    36    43    2
