@<TRIPOS>MOLECULE
3ewd_MCF_1_ligand
   38    40     1     0     0
SMALL
NO_CHARGES


@<TRIPOS>ATOM
     1 O8          -9.5280    -1.6190   -25.0260 O.3          1 MCF372   0.0000
     2 C8          -9.1400    -2.9800   -25.0870 C.3          1 MCF372   0.0000
     3 C7          -7.9350    -3.1450   -25.9970 C.3          1 MCF372   0.0000
     4 N6          -8.2340    -2.5630   -27.2840 N.pl3        1 MCF372   0.0000
     5 C5          -9.0140    -3.1410   -28.1820 C.2          1 MCF372   0.0000
     6 N4          -9.9830    -3.9560   -28.0340 N.2          1 MCF372   0.0000
     7 C10        -10.4510    -4.4990   -26.8540 C.2          1 MCF372   0.0000
     8 C9         -10.1040    -4.0300   -25.5160 C.2          1 MCF372   0.0000
     9 N1         -10.8060    -4.8880   -24.7030 N.2          1 MCF372   1.0000
    10 C2         -11.5020    -5.7570   -25.4730 C.2          1 MCF372   0.0000
    11 N3         -11.3150    -5.5000   -26.7740 N.pl3        1 MCF372   0.0000
    12 C1S        -11.9000    -6.2910   -27.8780 C.3          1 MCF372   0.0000
    13 C2S        -11.1420    -7.6330   -27.7660 C.3          1 MCF372   0.0000
    14 O2S         -9.8450    -7.6370   -28.3290 O.3          1 MCF372   0.0000
    15 O4S        -13.2780    -6.6670   -27.6860 O.3          1 MCF372   0.0000
    16 C4S        -13.1530    -8.0030   -27.8830 C.2          1 MCF372   0.0000
    17 C3S        -12.0100    -8.6520   -28.4400 C.3          1 MCF372   0.0000
    18 O3S        -11.7790    -8.3940   -29.8210 O.3          1 MCF372   0.0000
    19 C5S        -14.2830    -8.8130   -27.3750 C.2          1 MCF372   0.0000
    20 S5S        -13.6500    -8.9460   -25.7750 S.3          1 MCF372   0.0000
    21 C6S        -14.5830   -10.2810   -25.0380 C.3          1 MCF372   0.0000
    22 H1          -9.0453    -1.1681   -24.2752 H            1 MCF372   0.0000
    23 H2          -8.8378    -3.2306   -24.1673 H            1 MCF372   0.0000
    24 H3          -7.7298    -4.1174   -26.1084 H            1 MCF372   0.0000
    25 H4          -7.1454    -2.6816   -25.5949 H            1 MCF372   0.0000
    26 H5          -7.8300    -1.6761   -27.5082 H            1 MCF372   0.0000
    27 H6          -8.8107    -2.8996   -29.1309 H            1 MCF372   0.0000
    28 H7         -12.0788    -6.4926   -25.1178 H            1 MCF372   0.0000
    29 H1S        -11.7540    -5.8546   -28.7659 H            1 MCF372   0.0000
    30 H2S        -11.0667    -7.8731   -26.7982 H            1 MCF372   0.0000
    31 H10         -9.1743    -7.8533   -27.6195 H            1 MCF372   0.0000
    32 H3S        -11.8680    -9.5982   -28.1493 H            1 MCF372   0.0000
    33 H12        -12.4409    -7.7203   -30.1495 H            1 MCF372   0.0000
    34 H5S        -15.1163    -9.1597   -27.8055 H            1 MCF372   0.0000
    35 H6S1       -14.2738   -10.4244   -24.0979 H            1 MCF372   0.0000
    36 H6S2       -15.5553   -10.0474   -25.0372 H            1 MCF372   0.0000
    37 H6S3       -14.4417   -11.1180   -25.5667 H            1 MCF372   0.0000
    38 H17        -10.8030    -4.8726   -23.7031 H            1 MCF372   0.0000
@<TRIPOS>BOND
     1    1    2       1
     2    2    3       1
     3    2    8       1
     4    3    4       1
     5    4    5       1
     6    5    6       2
     7    6    7       1
     8    7    8       2
     9    7   11       1
    10    8    9       1
    11    9   10       2
    12   10   11       1
    13   11   12       1
    14   12   13       1
    15   12   15       1
    16   13   14       1
    17   13   17       1
    18   15   16       1
    19   16   17       1
    20   16   19       2
    21   17   18       1
    22   19   20       1
    23   20   21       1
    24    1   22       1
    25    2   23       1
    26    3   24       1
    27    3   25       1
    28    4   26       1
    29    5   27       1
    30   10   28       1
    31   12   29       1
    32   13   30       1
    33   14   31       1
    34   17   32       1
    35   18   33       1
    36   19   34       1
    37   21   35       1
    38   21   36       1
    39   21   37       1
    40    9   38       1
@<TRIPOS>SUBSTRUCTURE
     1 MCF372      1 GROUP             4 A     MCF     0 **** MCF A 372
