@<TRIPOS>MOLECULE
2r96_FMN_2_ligand
   54    56     1     0     0
SMALL
NO_CHARGES


@<TRIPOS>ATOM
     1 N1          11.1250   -25.1710    37.8270 N.am         1 FMN198   0.0000
     2 C2          11.7210   -24.8530    39.0060 C.2          1 FMN198   0.0000
     3 O2          11.6710   -23.6900    39.3610 O.2          1 FMN198   0.0000
     4 N3          12.3680   -25.8130    39.7760 N.am         1 FMN198   0.0000
     5 C4          12.3940   -27.1570    39.4220 C.3          1 FMN198   0.0000
     6 O4          12.0830   -28.0010    40.3220 O.3          1 FMN198   0.0000
     7 C4A         11.8160   -27.4620    38.1950 C.2          1 FMN198   0.0000
     8 N5          11.8380   -28.7770    37.7780 N.pl3        1 FMN198   0.0000
     9 C5A         11.2240   -29.1320    36.5840 C.ar         1 FMN198   0.0000
    10 C6          11.2280   -30.4580    36.1550 C.ar         1 FMN198   0.0000
    11 C7          10.6220   -30.8410    34.9510 C.ar         1 FMN198   0.0000
    12 C7M         10.0620   -32.2530    34.8590 C.3          1 FMN198   0.0000
    13 C8          10.0060   -29.8650    34.1550 C.ar         1 FMN198   0.0000
    14 C8M          9.1860   -30.2850    32.9510 C.3          1 FMN198   0.0000
    15 C9           9.9910   -28.5370    34.5890 C.ar         1 FMN198   0.0000
    16 C9A         10.6020   -28.1630    35.7870 C.ar         1 FMN198   0.0000
    17 N10         10.6010   -26.8420    36.2040 N.pl3        1 FMN198   0.0000
    18 C10         11.1670   -26.4920    37.4210 C.2          1 FMN198   0.0000
    19 C1'         10.2410   -25.7450    35.2250 C.3          1 FMN198   0.0000
    20 C2'         11.1830   -25.4740    34.0520 C.3          1 FMN198   0.0000
    21 O2'         12.4990   -25.1170    34.4450 O.3          1 FMN198   0.0000
    22 C3'         10.5520   -24.2870    33.3240 C.3          1 FMN198   0.0000
    23 O3'          9.2480   -24.6130    32.8810 O.3          1 FMN198   0.0000
    24 C4'         11.4400   -23.7740    32.1990 C.3          1 FMN198   0.0000
    25 O4'         12.2110   -22.7560    32.7680 O.3          1 FMN198   0.0000
    26 C5'         10.6690   -23.1860    31.0280 C.3          1 FMN198   0.0000
    27 O5'         11.5780   -22.6100    30.1260 O.3          1 FMN198   0.0000
    28 P           11.4630   -22.8620    28.5500 P.3          1 FMN198   0.0000
    29 O1P         10.2520   -22.1020    28.0570 O.co2        1 FMN198   0.0000
    30 O2P         12.7390   -22.3470    27.9140 O.co2        1 FMN198  -1.0000
    31 O3P         11.3020   -24.3260    28.2460 O.co2        1 FMN198  -1.0000
    32 H1          10.6716   -24.4736    37.2720 H            1 FMN198   0.0000
    33 H2          12.8313   -25.5263    40.6146 H            1 FMN198   0.0000
    34 H3          13.3660   -27.3344    39.2677 H            1 FMN198   0.0000
    35 H4          12.7151   -27.9153    41.0921 H            1 FMN198   0.0000
    36 H5          12.2944   -29.4720    38.3335 H            1 FMN198   0.0000
    37 H6          11.6738   -31.1525    36.7197 H            1 FMN198   0.0000
    38 H7M1         9.6609   -32.3942    33.9539 H            1 FMN198   0.0000
    39 H7M2        10.7984   -32.9138    35.0041 H            1 FMN198   0.0000
    40 H7M3         9.3586   -32.3789    35.5586 H            1 FMN198   0.0000
    41 H8M1         8.8198   -29.4726    32.4973 H            1 FMN198   0.0000
    42 H8M2         9.7663   -30.7904    32.3124 H            1 FMN198   0.0000
    43 H8M3         8.4311   -30.8691    33.2492 H            1 FMN198   0.0000
    44 H13          9.5349   -27.8429    34.0321 H            1 FMN198   0.0000
    45 H1'1        10.1687   -24.8955    35.7475 H            1 FMN198   0.0000
    46 H1'2         9.3479   -25.9758    34.8388 H            1 FMN198   0.0000
    47 H2'         11.2117   -26.2694    33.4466 H            1 FMN198   0.0000
    48 H17         13.0576   -25.9423    34.5277 H            1 FMN198   0.0000
    49 H3'         10.4613   -23.5464    33.9898 H            1 FMN198   0.0000
    50 H19          9.1967   -25.5929    32.6882 H            1 FMN198   0.0000
    51 H4'         12.0359   -24.5094    31.8764 H            1 FMN198   0.0000
    52 H21         13.0553   -23.1442    33.1374 H            1 FMN198   0.0000
    53 H5'1        10.0370   -22.4859    31.3603 H            1 FMN198   0.0000
    54 H5'2        10.1536   -23.9094    30.5687 H            1 FMN198   0.0000
@<TRIPOS>BOND
     1    1    2      am
     2    1   18       1
     3    2    3       2
     4    2    4      am
     5    4    5       1
     6    5    6       1
     7    5    7       1
     8    7    8       1
     9    7   18       2
    10    8    9       1
    11    9   10      ar
    12    9   16      ar
    13   10   11      ar
    14   11   12       1
    15   11   13      ar
    16   13   14       1
    17   13   15      ar
    18   15   16      ar
    19   16   17       1
    20   17   18       1
    21   17   19       1
    22   19   20       1
    23   20   21       1
    24   20   22       1
    25   22   23       1
    26   22   24       1
    27   24   25       1
    28   24   26       1
    29   26   27       1
    30   27   28       1
    31   28   29      ar
    32   28   30      ar
    33   28   31      ar
    34    1   32       1
    35    4   33       1
    36    5   34       1
    37    6   35       1
    38    8   36       1
    39   10   37       1
    40   12   38       1
    41   12   39       1
    42   12   40       1
    43   14   41       1
    44   14   42       1
    45   14   43       1
    46   15   44       1
    47   19   45       1
    48   19   46       1
    49   20   47       1
    50   21   48       1
    51   22   49       1
    52   23   50       1
    53   24   51       1
    54   25   52       1
    55   26   53       1
    56   26   54       1
@<TRIPOS>SUBSTRUCTURE
     1 FMN198      1 GROUP             4 C     FMN     0 **** FMN C 198
