@<TRIPOS>MOLECULE
4ira_FAD_1_ligand
   85    90     1     0     0
SMALL
NO_CHARGES


@<TRIPOS>ATOM
     1 PA         -16.2280   -35.4140     8.0340 P.3          1 FAD201   0.0000
     2 O1A        -16.5210   -35.6210     9.5050 O.co2        1 FAD201   0.0000
     3 O2A        -17.2150   -34.4880     7.3780 O.co2        1 FAD201  -1.0000
     4 O5B        -16.2540   -36.9010     7.3750 O.3          1 FAD201   0.0000
     5 C5B        -16.7280   -37.2090     6.0730 C.3          1 FAD201   0.0000
     6 C4B        -16.4870   -38.6840     5.6930 C.3          1 FAD201   0.0000
     7 O4B        -15.1470   -38.9410     5.2580 O.3          1 FAD201   0.0000
     8 C3B        -16.7530   -39.6270     6.8470 C.3          1 FAD201   0.0000
     9 O3B        -17.4270   -40.7650     6.3580 O.3          1 FAD201   0.0000
    10 C2B        -15.3800   -40.0440     7.3180 C.3          1 FAD201   0.0000
    11 O2B        -15.4530   -41.3740     7.7640 O.3          1 FAD201   0.0000
    12 C1B        -14.4480   -39.8480     6.1130 C.3          1 FAD201   0.0000
    13 N9A        -13.1030   -39.2890     6.4920 N.pl3        1 FAD201   0.0000
    14 C8A        -12.8780   -37.9770     6.8650 C.2          1 FAD201   0.0000
    15 N7A        -11.5540   -37.8070     7.1310 N.2          1 FAD201   1.0000
    16 C5A        -10.9040   -38.9840     6.9380 C.ar         1 FAD201   0.0000
    17 C6A         -9.5440   -39.3410     7.0660 C.ar         1 FAD201   0.0000
    18 N6A         -8.6240   -38.4050     7.3430 N.pl3        1 FAD201   0.0000
    19 N1A         -9.1440   -40.6500     6.7950 N.ar         1 FAD201   0.0000
    20 C2A        -10.1040   -41.5820     6.3910 C.ar         1 FAD201   0.0000
    21 N3A        -11.4440   -41.2110     6.2610 N.ar         1 FAD201   0.0000
    22 C4A        -11.8590   -39.9300     6.5270 C.ar         1 FAD201   0.0000
    23 N1          -9.3080   -37.4280     3.6900 N.2          1 FAD201   0.0000
    24 C2          -8.8200   -38.7300     3.5420 C.2          1 FAD201   0.0000
    25 O2          -7.6000   -38.9400     3.6960 O.2          1 FAD201   0.0000
    26 N3          -9.6910   -39.7770     3.2160 N.pl3        1 FAD201   0.0000
    27 C4         -11.0530   -39.5390     3.0410 C.2          1 FAD201   0.0000
    28 O4         -11.8080   -40.5030     2.7430 O.2          1 FAD201   0.0000
    29 C4X        -11.5380   -38.2110     3.2000 C.2          1 FAD201   0.0000
    30 N5         -12.8850   -37.9320     3.0330 N.2          1 FAD201   0.0000
    31 C5X        -13.3810   -36.6400     3.1920 C.ar         1 FAD201   0.0000
    32 C6         -14.7550   -36.4180     3.0220 C.ar         1 FAD201   0.0000
    33 C7         -15.3010   -35.1330     3.1710 C.ar         1 FAD201   0.0000
    34 C7M        -16.7860   -34.9340     2.9750 C.3          1 FAD201   0.0000
    35 C8         -14.4620   -34.0610     3.4880 C.ar         1 FAD201   0.0000
    36 C8M        -15.0350   -32.6760     3.6490 C.3          1 FAD201   0.0000
    37 C9         -13.0750   -34.2830     3.6600 C.ar         1 FAD201   0.0000
    38 C9A        -12.5170   -35.5760     3.5200 C.ar         1 FAD201   0.0000
    39 N10        -11.1360   -35.8310     3.7000 N.pl3        1 FAD201   0.0000
    40 C10        -10.6590   -37.1450     3.5270 C.2          1 FAD201   0.0000
    41 C1'        -10.1710   -34.6850     4.0120 C.3          1 FAD201   0.0000
    42 C2'         -9.6040   -34.4690     5.4350 C.3          1 FAD201   0.0000
    43 O2'         -8.7290   -35.5330     5.7970 O.3          1 FAD201   0.0000
    44 C3'        -10.7150   -34.0720     6.4520 C.3          1 FAD201   0.0000
    45 O3'        -11.0660   -32.7130     6.2300 O.3          1 FAD201   0.0000
    46 C4'        -10.4930   -34.3090     7.9670 C.3          1 FAD201   0.0000
    47 O4'         -9.6400   -35.3870     8.2440 O.3          1 FAD201   0.0000
    48 C5'        -11.7640   -34.8610     8.6000 C.3          1 FAD201   0.0000
    49 O5'        -12.6150   -33.8720     9.1020 O.3          1 FAD201   0.0000
    50 P          -14.0280   -33.5030     8.4040 P.3          1 FAD201   0.0000
    51 O1P        -14.8960   -32.9270     9.5030 O.co2        1 FAD201   0.0000
    52 O2P        -13.7510   -32.4810     7.3190 O.co2        1 FAD201  -1.0000
    53 O3P        -14.6970   -34.8710     7.8060 O.3          1 FAD201   0.0000
    54 H5B1       -16.2547   -36.6259     5.4127 H            1 FAD201   0.0000
    55 H5B2       -17.7102   -37.0245     6.0369 H            1 FAD201   0.0000
    56 H4B        -17.1089   -38.9202     4.9464 H            1 FAD201   0.0000
    57 H3B        -17.2706   -39.1786     7.5757 H            1 FAD201   0.0000
    58 H5         -16.8802   -41.5815     6.5432 H            1 FAD201   0.0000
    59 H2B        -15.0877   -39.4524     8.0694 H            1 FAD201   0.0000
    60 H7         -15.6764   -41.3870     8.7386 H            1 FAD201   0.0000
    61 H1B        -14.3247   -40.7215     5.6420 H            1 FAD201   0.0000
    62 H8A        -13.5775   -37.2653     6.9292 H            1 FAD201   0.0000
    63 H6A1        -7.6616   -38.6611     7.4330 H            1 FAD201   0.0000
    64 H6A2        -8.9006   -37.4511     7.4595 H            1 FAD201   0.0000
    65 H2A         -9.8289   -42.5229     6.1933 H            1 FAD201   0.0000
    66 H13         -9.3323   -40.7042     3.1078 H            1 FAD201   0.0000
    67 H14        -15.3539   -37.1849     2.7916 H            1 FAD201   0.0000
    68 H7M1       -17.0146   -33.9706     3.1150 H            1 FAD201   0.0000
    69 H7M2       -17.0389   -35.2050     2.0463 H            1 FAD201   0.0000
    70 H7M3       -17.2873   -35.4947     3.6340 H            1 FAD201   0.0000
    71 H8M1       -14.3006   -32.0354     3.8734 H            1 FAD201   0.0000
    72 H8M2       -15.4730   -32.3951     2.7950 H            1 FAD201   0.0000
    73 H8M3       -15.7115   -32.6787     4.3854 H            1 FAD201   0.0000
    74 H21        -12.4785   -33.5124     3.8845 H            1 FAD201   0.0000
    75 H1'1       -10.6476   -33.8406     3.7673 H            1 FAD201   0.0000
    76 H1'2        -9.3821   -34.8090     3.4100 H            1 FAD201   0.0000
    77 H2'         -9.0173   -33.6625     5.3621 H            1 FAD201   0.0000
    78 H25         -8.6741   -36.1899     5.0451 H            1 FAD201   0.0000
    79 H3'        -11.5211   -34.6093     6.2038 H            1 FAD201   0.0000
    80 H27        -12.0252   -32.5721     6.4751 H            1 FAD201   0.0000
    81 H4'        -10.1885   -33.4747     8.4266 H            1 FAD201   0.0000
    82 H29         -8.9786   -35.4883     7.5008 H            1 FAD201   0.0000
    83 H5'1       -11.5050   -35.4668     9.3523 H            1 FAD201   0.0000
    84 H5'2       -12.2609   -35.3836     7.9072 H            1 FAD201   0.0000
    85 H7A        -11.1272   -36.9509     7.4225 H            1 FAD201   0.0000
@<TRIPOS>BOND
     1    1    2      ar
     2    1    3      ar
     3    1    4       1
     4    1   53       1
     5    4    5       1
     6    5    6       1
     7    6    7       1
     8    6    8       1
     9    7   12       1
    10    8    9       1
    11    8   10       1
    12   10   11       1
    13   10   12       1
    14   12   13       1
    15   13   14       1
    16   13   22       1
    17   14   15       2
    18   15   16       1
    19   16   17      ar
    20   16   22      ar
    21   17   18       1
    22   17   19      ar
    23   19   20      ar
    24   20   21      ar
    25   21   22      ar
    26   23   24       1
    27   23   40       2
    28   24   25       2
    29   24   26       1
    30   26   27       1
    31   27   28       2
    32   27   29       1
    33   29   30       2
    34   29   40       1
    35   30   31       1
    36   31   32      ar
    37   31   38      ar
    38   32   33      ar
    39   33   34       1
    40   33   35      ar
    41   35   36       1
    42   35   37      ar
    43   37   38      ar
    44   38   39       1
    45   39   40       1
    46   39   41       1
    47   41   42       1
    48   42   43       1
    49   42   44       1
    50   44   45       1
    51   44   46       1
    52   46   47       1
    53   46   48       1
    54   48   49       1
    55   49   50       1
    56   50   51      ar
    57   50   52      ar
    58   50   53       1
    59   48   84       1
    60    5   54       1
    61    5   55       1
    62    6   56       1
    63    8   57       1
    64    9   58       1
    65   10   59       1
    66   11   60       1
    67   12   61       1
    68   14   62       1
    69   18   63       1
    70   18   64       1
    71   20   65       1
    72   26   66       1
    73   32   67       1
    74   34   68       1
    75   34   69       1
    76   34   70       1
    77   36   71       1
    78   36   72       1
    79   36   73       1
    80   37   74       1
    81   41   75       1
    82   41   76       1
    83   42   77       1
    84   43   78       1
    85   44   79       1
    86   45   80       1
    87   46   81       1
    88   47   82       1
    89   48   83       1
    90   15   85       1
@<TRIPOS>SUBSTRUCTURE
     1 FAD201      1 GROUP             4 A     FAD     0 **** FAD A 201
