@<TRIPOS>MOLECULE
2ggh_NLQ_1_ligand
   24    23     1     0     0
SMALL
NO_CHARGES


@<TRIPOS>ATOM
     1 OXT         58.9060    26.3580    32.8410 O.co2        1 NLQ1376   0.0000
     2 C           59.0800    25.3690    32.0960 C.2          1 NLQ1376   0.0000
     3 O           58.8960    25.4290    30.8590 O.co2        1 NLQ1376  -1.0000
     4 CA          59.5100    24.0830    32.7630 C.3          1 NLQ1376   0.0000
     5 N           58.8490    22.8790    32.2470 N.am         1 NLQ1376   0.0000
     6 C6          58.7510    22.4960    30.8460 C.2          1 NLQ1376   0.0000
     7 O4          57.7020    23.1950    30.1790 O.2          1 NLQ1376   0.0000
     8 C7          58.4840    20.9950    30.7610 C.3          1 NLQ1376   0.0000
     9 CB          61.0460    23.9650    32.8550 C.3          1 NLQ1376   0.0000
    10 CG          61.5520    23.1380    34.0490 C.3          1 NLQ1376   0.0000
    11 CD          63.0560    23.2980    34.3250 C.2          1 NLQ1376   0.0000
    12 NE2         63.2910    23.5270    35.7370 N.am         1 NLQ1376   0.0000
    13 OE1         63.7890    22.1420    33.9440 O.2          1 NLQ1376   0.0000
    14 HA          59.1986    24.1647    33.7098 H            1 NLQ1376   0.0000
    15 H2          58.4286    22.2673    32.9171 H            1 NLQ1376   0.0000
    16 H3          58.4151    20.7225    29.8013 H            1 NLQ1376   0.0000
    17 H4          59.2349    20.4977    31.1956 H            1 NLQ1376   0.0000
    18 H5          57.6272    20.7817    31.2304 H            1 NLQ1376   0.0000
    19 HB1         61.4261    24.8869    32.9302 H            1 NLQ1376   0.0000
    20 HB2         61.3771    23.5354    32.0149 H            1 NLQ1376   0.0000
    21 HG1         61.3667    22.1728    33.8646 H            1 NLQ1376   0.0000
    22 HG2         61.0500    23.4238    34.8653 H            1 NLQ1376   0.0000
    23 HE21        64.2240    23.6511    36.0749 H            1 NLQ1376   0.0000
    24 HE22        62.5202    23.5609    36.3731 H            1 NLQ1376   0.0000
@<TRIPOS>BOND
     1    1    2      ar
     2    2    3      ar
     3    2    4       1
     4    4    5       1
     5    4    9       1
     6    5    6      am
     7    6    7       2
     8    6    8       1
     9    9   10       1
    10   10   11       1
    11   11   12      am
    12   11   13       2
    13   12   24       1
    14    4   14       1
    15    5   15       1
    16    8   16       1
    17    8   17       1
    18    8   18       1
    19    9   19       1
    20    9   20       1
    21   10   21       1
    22   10   22       1
    23   12   23       1
@<TRIPOS>SUBSTRUCTURE
     1 NLQ1376     1 GROUP             4 C     NLQ     0 **** NLQ C1376
