@<TRIPOS>MOLECULE
3ppr_4CS_2_ligand
   19    19     1     0     0
SMALL
NO_CHARGES


@<TRIPOS>ATOM
     1 O           17.3290    39.6150    31.0010 O.co2        1 4CS401   0.0000
     2 C           16.2070    39.5940    30.7650 C.2          1 4CS401   0.0000
     3 OXT         15.3490    39.8590    31.7590 O.co2        1 4CS401  -1.0000
     4 CA          15.7050    39.4280    29.3170 C.3          1 4CS401   0.0000
     5 CB          14.4860    38.5340    29.3080 C.3          1 4CS401   0.0000
     6 CAD         14.0410    38.0850    27.9320 C.3          1 4CS401   0.0000
     7 NAG         15.1290    37.9760    26.9940 N.pl3        1 4CS401   0.0000
     8 CAI         16.4780    38.1020    27.3950 C.2          1 4CS401   0.0000
     9 CAA         17.5720    37.7790    26.4240 C.3          1 4CS401   0.0000
    10 N           16.7900    38.8900    28.5330 N.2          1 4CS401   0.0000
    11 HA          15.4540    40.3253    28.9540 H            1 4CS401   0.0000
    12 HB1         13.7305    39.0332    29.7323 H            1 4CS401   0.0000
    13 HB2         14.6931    37.7193    29.8497 H            1 4CS401   0.0000
    14 HAD1        13.3813    38.7483    27.5786 H            1 4CS401   0.0000
    15 HAD2        13.6020    37.1904    28.0156 H            1 4CS401   0.0000
    16 HAG         14.9233    37.8061    26.0302 H            1 4CS401   0.0000
    17 HAA1        18.4595    37.9193    26.8630 H            1 4CS401   0.0000
    18 HAA2        17.4902    36.8252    26.1349 H            1 4CS401   0.0000
    19 HAA3        17.4966    38.3768    25.6259 H            1 4CS401   0.0000
@<TRIPOS>BOND
     1    1    2      ar
     2    2    3      ar
     3    2    4       1
     4    4    5       1
     5    4   10       1
     6    5    6       1
     7    6    7       1
     8    7    8       1
     9    8    9       1
    10    8   10       2
    11    9   19       1
    12    4   11       1
    13    5   12       1
    14    5   13       1
    15    6   14       1
    16    6   15       1
    17    7   16       1
    18    9   17       1
    19    9   18       1
@<TRIPOS>SUBSTRUCTURE
     1 4CS401      1 GROUP             4 B     4CS     0 **** 4CS B 401
