@<TRIPOS>MOLECULE
1m2j_APR_1_ligand
   57    60     1     0     0
SMALL
NO_CHARGES


@<TRIPOS>ATOM
     1 N1          -5.7030     6.5020    12.7860 N.ar         1 APR1001   0.0000
     2 C2          -5.2430     5.5890    13.7430 C.ar         1 APR1001   0.0000
     3 N3          -5.7260     4.2810    13.7430 N.ar         1 APR1001   0.0000
     4 C4          -6.6660     3.8970    12.7900 C.ar         1 APR1001   0.0000
     5 C5          -7.1320     4.8040    11.8360 C.ar         1 APR1001   0.0000
     6 C6          -6.6460     6.1450    11.8190 C.ar         1 APR1001   0.0000
     7 N6          -7.0670     7.0470    10.9080 N.pl3        1 APR1001   0.0000
     8 N7          -8.0070     4.1810    11.0650 N.2          1 APR1001   0.0000
     9 C8          -8.0860     2.8950    11.5300 C.2          1 APR1001   0.0000
    10 N9          -7.2400     2.6300    12.6520 N.pl3        1 APR1001   0.0000
    11 C1'         -6.9540     1.5040    13.4620 C.3          1 APR1001   0.0000
    12 C2'         -8.0370     0.5660    13.5700 C.3          1 APR1001   0.0000
    13 O2'         -8.9990     0.8930    14.4290 O.3          1 APR1001   0.0000
    14 C3'         -7.3570    -0.6610    13.8340 C.3          1 APR1001   0.0000
    15 O3'         -7.3080    -0.9640    15.1400 O.3          1 APR1001   0.0000
    16 O4'         -5.9840     0.7880    12.8790 O.3          1 APR1001   0.0000
    17 C4'         -6.0160    -0.4780    13.3620 C.3          1 APR1001   0.0000
    18 C5'         -5.5670    -1.3820    12.3050 C.3          1 APR1001   0.0000
    19 O5'         -5.5910    -2.6610    12.7110 O.3          1 APR1001   0.0000
    20 PA          -5.0830    -3.7510    11.5960 P.3          1 APR1001   0.0000
    21 O1A         -5.9150    -3.6270    10.2530 O.co2        1 APR1001   0.0000
    22 O2A         -5.2060    -5.1980    12.2170 O.co2        1 APR1001  -1.0000
    23 O3A         -3.5490    -3.4040    11.2010 O.3          1 APR1001   0.0000
    24 PB          -2.2730    -3.9450    12.0490 P.3          1 APR1001   0.0000
    25 O1B         -2.4790    -3.9230    13.6140 O.co2        1 APR1001   0.0000
    26 O2B         -1.0510    -3.0400    11.6290 O.co2        1 APR1001  -1.0000
    27 O5D         -2.0440    -5.4560    11.5030 O.3          1 APR1001   0.0000
    28 C5D         -1.0350    -6.1530    11.9930 C.3          1 APR1001   0.0000
    29 O4D         -1.5380    -7.9090    10.5120 O.3          1 APR1001   0.0000
    30 O1D         -1.9980    -9.2050     8.7410 O.3          1 APR1001   0.0000
    31 C1D         -1.6790    -7.8920     9.2340 C.3          1 APR1001   0.0000
    32 O2D          0.8200    -8.3210     8.6670 O.3          1 APR1001   0.0000
    33 C2D         -0.2680    -7.5960     8.7790 C.3          1 APR1001   0.0000
    34 O3D          1.0470    -5.8920     9.7220 O.3          1 APR1001   0.0000
    35 C3D         -0.1360    -6.5120     9.7260 C.3          1 APR1001   0.0000
    36 C4D         -0.5890    -7.0860    10.9490 C.3          1 APR1001   0.0000
    37 H1          -4.5696     5.8745    14.4249 H            1 APR1001   0.0000
    38 H2          -7.7423     6.7839    10.2189 H            1 APR1001   0.0000
    39 H3          -6.7037     7.9786    10.9219 H            1 APR1001   0.0000
    40 H4          -8.6818     2.2035    11.1215 H            1 APR1001   0.0000
    41 H1'         -6.6634     1.7999    14.3719 H            1 APR1001   0.0000
    42 H2'         -8.4567     0.4875    12.6657 H            1 APR1001   0.0000
    43 H7          -8.6108     1.4366    15.1731 H            1 APR1001   0.0000
    44 H3'         -7.7945    -1.4057    13.3300 H            1 APR1001   0.0000
    45 H9          -6.8224    -1.8294    15.2634 H            1 APR1001   0.0000
    46 H4'         -5.3870    -0.5461    14.1364 H            1 APR1001   0.0000
    47 H5'1        -4.6318    -1.1405    12.0459 H            1 APR1001   0.0000
    48 H5'2        -6.1690    -1.2808    11.5130 H            1 APR1001   0.0000
    49 H5D1        -1.3329    -6.6622    12.8004 H            1 APR1001   0.0000
    50 H5D2        -0.2866    -5.5390    12.2436 H            1 APR1001   0.0000
    51 H1D         -1.1531    -9.6935     8.5229 H            1 APR1001   0.0000
    52 H16         -2.3329    -7.1992     8.9299 H            1 APR1001   0.0000
    53 H2D          1.5663    -7.7512     8.3228 H            1 APR1001   0.0000
    54 H18         -0.3725    -7.1499     7.8902 H            1 APR1001   0.0000
    55 H3D          0.9234    -4.9364     9.9896 H            1 APR1001   0.0000
    56 H20         -0.8157    -5.8258     9.4669 H            1 APR1001   0.0000
    57 H4D          0.1534    -7.6405    11.3251 H            1 APR1001   0.0000
@<TRIPOS>BOND
     1    1    2      ar
     2    1    6      ar
     3    2    3      ar
     4    3    4      ar
     5    4    5      ar
     6    4   10       1
     7    5    6      ar
     8    5    8       1
     9    6    7       1
    10    8    9       2
    11    9   10       1
    12   10   11       1
    13   11   12       1
    14   11   16       1
    15   12   13       1
    16   12   14       1
    17   14   15       1
    18   14   17       1
    19   16   17       1
    20   17   18       1
    21   18   19       1
    22   19   20       1
    23   20   21      ar
    24   20   22      ar
    25   20   23       1
    26   23   24       1
    27   24   25      ar
    28   24   26      ar
    29   24   27       1
    30   27   28       1
    31   28   36       1
    32   29   31       1
    33   29   36       1
    34   30   31       1
    35   31   33       1
    36   32   33       1
    37   33   35       1
    38   34   35       1
    39   35   36       1
    40    2   37       1
    41    7   38       1
    42    7   39       1
    43    9   40       1
    44   11   41       1
    45   12   42       1
    46   13   43       1
    47   14   44       1
    48   15   45       1
    49   17   46       1
    50   18   47       1
    51   18   48       1
    52   36   57       1
    53   35   56       1
    54   28   49       1
    55   28   50       1
    56   30   51       1
    57   31   52       1
    58   32   53       1
    59   33   54       1
    60   34   55       1
@<TRIPOS>SUBSTRUCTURE
     1 APR1001     1 GROUP             4 A     APR     0 **** APR A1001
