@<TRIPOS>MOLECULE
3dt2_GTP_1_ligand
   44    46     1     0     0
SMALL
NO_CHARGES


@<TRIPOS>ATOM
     1 PG           2.9710    -1.7290    22.3740 P.3          1 GTP900   0.0000
     2 O1G          3.0290    -0.6190    21.3690 O.co2        1 GTP900   0.0000
     3 O2G          3.2620    -3.0590    21.7580 O.co2        1 GTP900  -1.0000
     4 O3G          3.7440    -1.4220    23.6390 O.co2        1 GTP900  -1.0000
     5 O3B          1.3810    -1.9170    22.7090 O.3          1 GTP900   0.0000
     6 PB           0.3060    -0.9680    23.4140 P.3          1 GTP900   0.0000
     7 O1B          0.4040     0.4630    22.9180 O.co2        1 GTP900   0.0000
     8 O2B          0.2800    -1.1590    24.9020 O.co2        1 GTP900  -1.0000
     9 O3A         -1.0850    -1.5850    22.8590 O.3          1 GTP900   0.0000
    10 PA          -2.1810    -0.8790    21.8980 P.3          1 GTP900   0.0000
    11 O1A         -1.5860    -0.6900    20.5420 O.co2        1 GTP900   0.0000
    12 O2A         -2.8050     0.3190    22.5630 O.co2        1 GTP900  -1.0000
    13 O5'         -3.2970    -2.0360    21.8890 O.3          1 GTP900   0.0000
    14 C5'         -2.9820    -3.3250    21.3840 C.3          1 GTP900   0.0000
    15 C4'         -4.2620    -4.0380    20.9470 C.3          1 GTP900   0.0000
    16 O4'         -5.1700    -4.0370    22.0390 O.3          1 GTP900   0.0000
    17 C3'         -4.9640    -3.3540    19.7700 C.3          1 GTP900   0.0000
    18 O3'         -5.4660    -4.3410    18.8980 O.3          1 GTP900   0.0000
    19 C2'         -6.1000    -2.5850    20.4140 C.3          1 GTP900   0.0000
    20 O2'         -7.2470    -2.4220    19.5730 O.3          1 GTP900   0.0000
    21 C1'         -6.3840    -3.4260    21.6800 C.3          1 GTP900   0.0000
    22 N9          -6.9270    -2.6010    22.7560 N.pl3        1 GTP900   0.0000
    23 C8          -6.3840    -1.4440    23.2520 C.2          1 GTP900   0.0000
    24 N7          -7.1920    -1.0140    24.2400 N.2          1 GTP900   0.0000
    25 C5          -8.2240    -1.8820    24.4010 C.2          1 GTP900   0.0000
    26 C6          -9.3310    -1.8840    25.2520 C.2          1 GTP900   0.0000
    27 O6          -9.5990    -0.9870    26.0670 O.2          1 GTP900   0.0000
    28 N1         -10.1890    -2.9540    25.1390 N.pl3        1 GTP900   0.0000
    29 C2          -9.9810    -3.9540    24.1980 C.2          1 GTP900   0.0000
    30 N2         -10.8440    -4.9600    24.1260 N.pl3        1 GTP900   0.0000
    31 N3          -8.9020    -3.9610    23.3330 N.2          1 GTP900   0.0000
    32 C4          -8.0470    -2.8960    23.4510 C.2          1 GTP900   0.0000
    33 H5'1        -2.5314    -3.8603    22.0984 H            1 GTP900   0.0000
    34 H5'2        -2.3688    -3.2333    20.5994 H            1 GTP900   0.0000
    35 H4'         -4.0455    -4.9822    20.6987 H            1 GTP900   0.0000
    36 H3'         -4.3401    -2.7366    19.2908 H            1 GTP900   0.0000
    37 H5          -5.4742    -3.9867    17.9629 H            1 GTP900   0.0000
    38 H2'         -5.7676    -1.6831    20.6899 H            1 GTP900   0.0000
    39 H7          -7.6060    -3.3207    19.3210 H            1 GTP900   0.0000
    40 H1'         -7.0485    -4.1377    21.4523 H            1 GTP900   0.0000
    41 H9          -5.5439    -1.0015    22.9384 H            1 GTP900   0.0000
    42 H10        -10.9799    -3.0128    25.7481 H            1 GTP900   0.0000
    43 H11        -10.7084    -5.6880    23.4539 H            1 GTP900   0.0000
    44 H12        -11.6297    -4.9899    24.7438 H            1 GTP900   0.0000
@<TRIPOS>BOND
     1    1    2      ar
     2    1    3      ar
     3    1    4      ar
     4    1    5       1
     5    5    6       1
     6    6    7      ar
     7    6    8      ar
     8    6    9       1
     9    9   10       1
    10   10   11      ar
    11   10   12      ar
    12   10   13       1
    13   13   14       1
    14   14   15       1
    15   15   16       1
    16   15   17       1
    17   16   21       1
    18   17   18       1
    19   17   19       1
    20   19   20       1
    21   19   21       1
    22   21   22       1
    23   22   23       1
    24   22   32       1
    25   23   24       2
    26   24   25       1
    27   25   26       1
    28   25   32       2
    29   26   27       2
    30   26   28       1
    31   28   29       1
    32   29   30       1
    33   29   31       2
    34   31   32       1
    35   30   44       1
    36   30   43       1
    37   28   42       1
    38   23   41       1
    39   14   33       1
    40   14   34       1
    41   15   35       1
    42   17   36       1
    43   18   37       1
    44   19   38       1
    45   20   39       1
    46   21   40       1
@<TRIPOS>SUBSTRUCTURE
     1 GTP900      1 GROUP             4 A     GTP     0 **** GTP A 900
