@<TRIPOS>MOLECULE
4lsj_LSJ_1_ligand
   56    59     1     0     0
SMALL
NO_CHARGES


@<TRIPOS>ATOM
     1 C1          -9.1740    14.2250   -16.5000 C.3          1 LSJ801   0.0000
     2 O2          -7.9120    14.8410   -16.4530 O.3          1 LSJ801   0.0000
     3 C3          -6.8020    14.0170   -16.4910 C.ar         1 LSJ801   0.0000
     4 C4          -6.7850    12.6650   -16.7010 C.ar         1 LSJ801   0.0000
     5 C5          -5.5940    12.0100   -16.7190 C.ar         1 LSJ801   0.0000
     6 C6          -4.4030    12.6380   -16.5080 C.ar         1 LSJ801   0.0000
     7 C7          -4.4110    13.9790   -16.2880 C.ar         1 LSJ801   0.0000
     8 C8          -5.6050    14.6400   -16.2820 C.ar         1 LSJ801   0.0000
     9 C9          -7.9600    11.9160   -16.9820 C.2          1 LSJ801   0.0000
    10 C10         -8.3130    10.8130   -16.3060 C.2          1 LSJ801   0.0000
    11 C11         -9.4730    10.0280   -16.6560 C.ar         1 LSJ801   0.0000
    12 C12        -10.7540    10.4690   -16.8060 C.ar         1 LSJ801   0.0000
    13 C13        -11.7690     9.6150   -17.1540 C.ar         1 LSJ801   0.0000
    14 C14        -11.5550     8.2830   -17.3560 C.ar         1 LSJ801   0.0000
    15 C15        -10.2680     7.8450   -17.2070 C.ar         1 LSJ801   0.0000
    16 C16         -9.2700     8.7030   -16.8690 C.ar         1 LSJ801   0.0000
    17 N17         -9.8420     6.5160   -17.3460 N.pl3        1 LSJ801   0.0000
    18 S18        -10.3490     5.4460   -18.5130 S.o2         1 LSJ801   0.0000
    19 O19         -9.7070     4.2270   -18.3310 O.2          1 LSJ801   0.0000
    20 O20        -11.7420     5.4420   -18.6400 O.2          1 LSJ801   0.0000
    21 C21         -9.6480     6.2070   -19.8930 C.3          1 LSJ801   0.0000
    22 C22         -7.5180    10.2320   -15.2140 C.3          1 LSJ801   0.0000
    23 C23         -8.3450     9.7840   -14.0500 C.3          1 LSJ801   0.0000
    24 C24         -8.7940    12.3780   -18.0620 C.ar         1 LSJ801   0.0000
    25 C25         -9.4230    13.5670   -17.8130 C.ar         1 LSJ801   0.0000
    26 C26        -10.2500    14.0790   -18.7730 C.ar         1 LSJ801   0.0000
    27 C27        -10.4430    13.4270   -19.9600 C.ar         1 LSJ801   0.0000
    28 C28         -9.8020    12.2530   -20.1960 C.ar         1 LSJ801   0.0000
    29 C29         -8.9740    11.7180   -19.2510 C.ar         1 LSJ801   0.0000
    30 O30         -8.3090    10.5560   -19.4850 O.3          1 LSJ801   0.0000
    31 C31         -8.9570     9.8360   -20.4640 C.3          1 LSJ801   0.0000
    32 H1          -9.8781    14.9185   -16.3474 H            1 LSJ801   0.0000
    33 H2          -9.2239    13.5349   -15.7780 H            1 LSJ801   0.0000
    34 H3          -5.5916    11.0255   -16.8945 H            1 LSJ801   0.0000
    35 H4          -3.5447    12.1249   -16.5149 H            1 LSJ801   0.0000
    36 H5          -3.5558    14.4735   -16.1330 H            1 LSJ801   0.0000
    37 H6          -5.6032    15.6263   -16.1169 H            1 LSJ801   0.0000
    38 H7         -10.9582    11.4368   -16.6590 H            1 LSJ801   0.0000
    39 H8         -12.6937     9.9797   -17.2629 H            1 LSJ801   0.0000
    40 H9         -12.2988     7.6606   -17.5998 H            1 LSJ801   0.0000
    41 H10         -8.3427     8.3413   -16.7727 H            1 LSJ801   0.0000
    42 H11         -9.1724     6.1816   -16.6828 H            1 LSJ801   0.0000
    43 H12         -9.8631     5.6753   -20.7121 H            1 LSJ801   0.0000
    44 H13        -10.0187     7.1308   -19.9884 H            1 LSJ801   0.0000
    45 H14         -8.6558     6.2561   -19.7785 H            1 LSJ801   0.0000
    46 H15         -6.8675    10.9209   -14.8942 H            1 LSJ801   0.0000
    47 H16         -7.0188     9.4424   -15.5708 H            1 LSJ801   0.0000
    48 H17         -7.7483     9.4004   -13.3451 H            1 LSJ801   0.0000
    49 H18         -8.8440    10.5654   -13.6753 H            1 LSJ801   0.0000
    50 H19         -8.9953     9.0868   -14.3518 H            1 LSJ801   0.0000
    51 H20        -10.7218    14.9445   -18.6050 H            1 LSJ801   0.0000
    52 H21        -11.0537    13.8132   -20.6513 H            1 LSJ801   0.0000
    53 H22         -9.9370    11.7783   -21.0657 H            1 LSJ801   0.0000
    54 H23         -8.4636     8.9826   -20.6319 H            1 LSJ801   0.0000
    55 H24         -9.8883     9.6291   -20.1643 H            1 LSJ801   0.0000
    56 H25         -8.9896    10.3735   -21.3066 H            1 LSJ801   0.0000
@<TRIPOS>BOND
     1    1    2       1
     2    1   25       1
     3    2    3       1
     4    3    4      ar
     5    3    8      ar
     6    4    5      ar
     7    4    9       1
     8    5    6      ar
     9    6    7      ar
    10    7    8      ar
    11    9   10       2
    12    9   24       1
    13   10   11       1
    14   10   22       1
    15   11   12      ar
    16   11   16      ar
    17   12   13      ar
    18   13   14      ar
    19   14   15      ar
    20   15   16      ar
    21   15   17       1
    22   17   18       1
    23   18   19       2
    24   18   20       2
    25   18   21       1
    26   22   23       1
    27   24   25      ar
    28   24   29      ar
    29   25   26      ar
    30   26   27      ar
    31   27   28      ar
    32   28   29      ar
    33   29   30       1
    34   30   31       1
    35    1   32       1
    36    1   33       1
    37    5   34       1
    38    6   35       1
    39    7   36       1
    40    8   37       1
    41   12   38       1
    42   13   39       1
    43   14   40       1
    44   16   41       1
    45   17   42       1
    46   21   43       1
    47   21   44       1
    48   21   45       1
    49   22   46       1
    50   22   47       1
    51   23   48       1
    52   23   49       1
    53   23   50       1
    54   26   51       1
    55   27   52       1
    56   28   53       1
    57   31   54       1
    58   31   55       1
    59   31   56       1
@<TRIPOS>SUBSTRUCTURE
     1 LSJ801      1 GROUP             4 A     LSJ     0 **** LSJ A 801
