@<TRIPOS>MOLECULE
4cdg_ADP_1_ligand
   39    41     1     0     0
SMALL
NO_CHARGES


@<TRIPOS>ATOM
     1 PB           9.7650   128.5950   -42.9770 P.3          1 ADP1634   0.0000
     2 O1B          8.8620   129.8040   -42.9300 O.co2        1 ADP1634   0.0000
     3 O2B          9.6190   127.6630   -41.7990 O.co2        1 ADP1634  -1.0000
     4 O3B          9.8300   127.9050   -44.3170 O.co2        1 ADP1634  -1.0000
     5 PA          12.0470   129.7660   -44.0720 P.3          1 ADP1634   0.0000
     6 O1A         11.1050   130.6840   -44.8150 O.co2        1 ADP1634   0.0000
     7 O2A         12.7140   128.6120   -44.7780 O.co2        1 ADP1634  -1.0000
     8 O3A         11.2480   129.1890   -42.8020 O.3          1 ADP1634   0.0000
     9 O5'         13.1820   130.6460   -43.3430 O.3          1 ADP1634   0.0000
    10 C5'         13.0530   132.0620   -43.2600 C.3          1 ADP1634   0.0000
    11 C4'         14.4180   132.7340   -43.1350 C.3          1 ADP1634   0.0000
    12 O4'         15.2620   132.0920   -42.1750 O.3          1 ADP1634   0.0000
    13 C3'         15.1690   132.7480   -44.4580 C.3          1 ADP1634   0.0000
    14 O3'         15.2360   134.0950   -44.9380 O.3          1 ADP1634   0.0000
    15 C2'         16.5600   132.2340   -44.1450 C.3          1 ADP1634   0.0000
    16 O2'         17.5430   133.1500   -44.6320 O.3          1 ADP1634   0.0000
    17 C1'         16.6160   132.1490   -42.6290 C.3          1 ADP1634   0.0000
    18 N9          17.3530   130.9370   -42.2020 N.pl3        1 ADP1634   0.0000
    19 C8          16.9260   129.6660   -42.3180 C.2          1 ADP1634   0.0000
    20 N7          17.8460   128.7970   -41.8270 N.2          1 ADP1634   0.0000
    21 C5          18.8910   129.5230   -41.3850 C.ar         1 ADP1634   0.0000
    22 C6          20.2030   129.2470   -40.7510 C.ar         1 ADP1634   0.0000
    23 N6          20.6010   127.9810   -40.4790 N.pl3        1 ADP1634   0.0000
    24 N1          20.9950   130.3020   -40.4500 N.ar         1 ADP1634   0.0000
    25 C2          20.6210   131.5680   -40.7100 C.ar         1 ADP1634   0.0000
    26 N3          19.4490   131.8900   -41.2830 N.ar         1 ADP1634   0.0000
    27 C4          18.5600   130.9320   -41.6370 C.ar         1 ADP1634   0.0000
    28 H5'1        12.5011   132.2929   -42.4587 H            1 ADP1634   0.0000
    29 H5'2        12.5987   132.3971   -44.0854 H            1 ADP1634   0.0000
    30 H4'         14.2763   133.6804   -42.8448 H            1 ADP1634   0.0000
    31 H3'         14.7169   132.1574   -45.1265 H            1 ADP1634   0.0000
    32 H5          16.1934   134.3694   -45.0286 H            1 ADP1634   0.0000
    33 H2'         16.6961   131.3297   -44.5496 H            1 ADP1634   0.0000
    34 H7          18.1290   132.6875   -45.2974 H            1 ADP1634   0.0000
    35 H1'         17.0626   132.9643   -42.2604 H            1 ADP1634   0.0000
    36 H9          16.0476   129.3974   -42.7134 H            1 ADP1634   0.0000
    37 H10         21.4899   127.8174   -40.0510 H            1 ADP1634   0.0000
    38 H11         20.0059   127.2101   -40.7062 H            1 ADP1634   0.0000
    39 H12         21.2476   132.3075   -40.4641 H            1 ADP1634   0.0000
@<TRIPOS>BOND
     1    1    2      ar
     2    1    3      ar
     3    1    4      ar
     4    1    8       1
     5    5    6      ar
     6    5    7      ar
     7    5    8       1
     8    5    9       1
     9    9   10       1
    10   10   11       1
    11   11   12       1
    12   11   13       1
    13   12   17       1
    14   13   14       1
    15   13   15       1
    16   15   16       1
    17   15   17       1
    18   17   18       1
    19   18   19       1
    20   18   27       1
    21   19   20       2
    22   20   21       1
    23   21   22      ar
    24   21   27      ar
    25   22   23       1
    26   22   24      ar
    27   24   25      ar
    28   25   26      ar
    29   26   27      ar
    30   25   39       1
    31   23   38       1
    32   23   37       1
    33   10   28       1
    34   10   29       1
    35   11   30       1
    36   13   31       1
    37   14   32       1
    38   15   33       1
    39   16   34       1
    40   17   35       1
    41   19   36       1
@<TRIPOS>SUBSTRUCTURE
     1 ADP1634     1 GROUP             4 A     ADP     0 **** ADP A1634
