@<TRIPOS>MOLECULE
3kbo_NDP_2_ligand
   73    77     1     0     0
SMALL
NO_CHARGES


@<TRIPOS>ATOM
     1 PA          17.9400    -3.6800     1.8070 P.3          1 NDP313   0.0000
     2 O1A         18.9810    -4.6740     1.7040 O.co2        1 NDP313   0.0000
     3 O2A         16.7460    -4.0420     1.0200 O.co2        1 NDP313  -1.0000
     4 O5B         17.5170    -3.3010     3.2920 O.3          1 NDP313   0.0000
     5 C5B         16.2370    -2.8370     3.6550 C.3          1 NDP313   0.0000
     6 C4B         16.0360    -3.2740     5.1140 C.3          1 NDP313   0.0000
     7 O4B         14.7790    -2.8240     5.5480 O.3          1 NDP313   0.0000
     8 C3B         16.0220    -4.7780     5.3510 C.3          1 NDP313   0.0000
     9 O3B         16.7740    -5.0730     6.4940 O.3          1 NDP313   0.0000
    10 C2B         14.5700    -5.1180     5.5680 C.3          1 NDP313   0.0000
    11 O2B         14.3090    -6.1360     6.4770 O.3          1 NDP313   0.0000
    12 C1B         14.0810    -3.8400     6.1790 C.3          1 NDP313   0.0000
    13 N9A         12.6750    -3.6420     5.9790 N.pl3        1 NDP313   0.0000
    14 C8A         11.9980    -3.4760     4.8160 C.2          1 NDP313   0.0000
    15 N7A         10.7110    -3.2240     5.1470 N.2          1 NDP313   0.0000
    16 C5A         10.5790    -3.2010     6.4810 C.ar         1 NDP313   0.0000
    17 C6A          9.4960    -2.9810     7.3020 C.ar         1 NDP313   0.0000
    18 N6A          8.2790    -2.7260     6.7680 N.pl3        1 NDP313   0.0000
    19 N1A          9.6770    -3.0310     8.6770 N.ar         1 NDP313   0.0000
    20 C2A         10.9380    -3.2480     9.2130 C.ar         1 NDP313   0.0000
    21 N3A         12.0140    -3.4710     8.3660 N.ar         1 NDP313   0.0000
    22 C4A         11.8170    -3.4410     7.0180 C.ar         1 NDP313   0.0000
    23 O3          18.3950    -2.3210     1.1870 O.3          1 NDP313   0.0000
    24 PN          19.8010    -1.6210     1.1580 P.3          1 NDP313   0.0000
    25 O1N         20.3770    -1.6520     2.5420 O.co2        1 NDP313   0.0000
    26 O2N         20.4660    -2.0800    -0.0450 O.co2        1 NDP313  -1.0000
    27 O5D         19.2530    -0.1790     0.7760 O.3          1 NDP313   0.0000
    28 C5D         18.2640     0.3590     1.6200 C.3          1 NDP313   0.0000
    29 C4D         17.7430     1.6830     1.0980 C.3          1 NDP313   0.0000
    30 O4D         18.7560     2.6610     1.1460 O.3          1 NDP313   0.0000
    31 C3D         17.3140     1.7120    -0.3570 C.3          1 NDP313   0.0000
    32 O3D         15.9800     1.2970    -0.4980 O.3          1 NDP313   0.0000
    33 C2D         17.3370     3.1900    -0.6770 C.3          1 NDP313   0.0000
    34 O2D         16.0850     3.6980    -0.5200 O.3          1 NDP313   0.0000
    35 C1D         18.3060     3.7820     0.3110 C.3          1 NDP313   0.0000
    36 N1N         19.4390     4.4000    -0.4030 N.ar         1 NDP313   1.0000
    37 C2N         19.6140     5.7500    -0.4050 C.ar         1 NDP313   0.0000
    38 C3N         20.6830     6.2900    -1.0880 C.ar         1 NDP313   0.0000
    39 C7N         20.9540     7.7620    -1.0330 C.2          1 NDP313   0.0000
    40 O7N         21.9390     8.2934    -1.8687 O.2          1 NDP313   0.0000
    41 N7N         20.2920     8.4384    -0.1169 N.am         1 NDP313   0.0000
    42 C4N         21.5650     5.4880    -1.7800 C.ar         1 NDP313   0.0000
    43 C5N         21.3660     4.0980    -1.7790 C.ar         1 NDP313   0.0000
    44 C6N         20.2870     3.5830    -1.1010 C.ar         1 NDP313   0.0000
    45 P2B         14.8130    -7.6470     6.2990 P.3          1 NDP313   0.0000
    46 O1X         14.1610    -8.4580     7.3760 O.co2        1 NDP313   0.0000
    47 O2X         14.2740    -8.1550     5.0220 O.co2        1 NDP313  -1.0000
    48 O3X         16.2940    -7.7750     6.4810 O.co2        1 NDP313  -1.0000
    49 H5B1        15.5382    -3.2467     3.0687 H            1 NDP313   0.0000
    50 H5B2        16.1928    -1.8408     3.5800 H            1 NDP313   0.0000
    51 H4B         16.7470    -2.8590     5.6817 H            1 NDP313   0.0000
    52 H3B         16.3834    -5.2642     4.5554 H            1 NDP313   0.0000
    53 H5          16.7666    -6.0604     6.6522 H            1 NDP313   0.0000
    54 H2B         14.1119    -5.2935     4.6966 H            1 NDP313   0.0000
    55 H1B         14.2868    -3.8335     7.1576 H            1 NDP313   0.0000
    56 H8A         12.3770    -3.5295     3.8921 H            1 NDP313   0.0000
    57 H6A1         7.4939    -2.5665     7.3664 H            1 NDP313   0.0000
    58 H6A2         8.1648    -2.6970     5.7750 H            1 NDP313   0.0000
    59 H2A         11.0707    -3.2437    10.2042 H            1 NDP313   0.0000
    60 H5D1        18.6555     0.5003     2.5293 H            1 NDP313   0.0000
    61 H5D2        17.5034    -0.2873     1.6813 H            1 NDP313   0.0000
    62 H4D         16.9773     1.9793     1.6690 H            1 NDP313   0.0000
    63 H3D         17.9343     1.1904    -0.9428 H            1 NDP313   0.0000
    64 H16         15.7562     0.6430     0.2246 H            1 NDP313   0.0000
    65 H2D         17.6585     3.3389    -1.6121 H            1 NDP313   0.0000
    66 H18         15.7864     3.5626     0.4247 H            1 NDP313   0.0000
    67 H1D         17.8438     4.4655     0.8760 H            1 NDP313   0.0000
    68 H2N         18.9743     6.3434     0.0835 H            1 NDP313   0.0000
    69 H7N1        20.5312     9.3909     0.0716 H            1 NDP313   0.0000
    70 H7N2        19.5501     7.9994     0.3900 H            1 NDP313   0.0000
    71 H4N         22.3351     5.8901    -2.2753 H            1 NDP313   0.0000
    72 H5N         21.9984     3.4933    -2.2632 H            1 NDP313   0.0000
    73 H6N         20.1191     2.5973    -1.1179 H            1 NDP313   0.0000
@<TRIPOS>BOND
     1    1    2      ar
     2    1    3      ar
     3    1    4       1
     4    1   23       1
     5    4    5       1
     6    5    6       1
     7    6    7       1
     8    6    8       1
     9    7   12       1
    10    8    9       1
    11    8   10       1
    12   10   11       1
    13   10   12       1
    14   11   45       1
    15   12   13       1
    16   13   14       1
    17   13   22       1
    18   14   15       2
    19   15   16       1
    20   16   17      ar
    21   16   22      ar
    22   17   18       1
    23   17   19      ar
    24   19   20      ar
    25   20   21      ar
    26   21   22      ar
    27   23   24       1
    28   24   25      ar
    29   24   26      ar
    30   24   27       1
    31   27   28       1
    32   28   29       1
    33   29   30       1
    34   29   31       1
    35   30   35       1
    36   31   32       1
    37   31   33       1
    38   33   34       1
    39   33   35       1
    40   35   36       1
    41   36   37      ar
    42   36   44      ar
    43   37   38      ar
    44   38   39       1
    45   38   42      ar
    46   39   40       2
    47   39   41      am
    48   42   43      ar
    49   43   44      ar
    50   45   46      ar
    51   45   47      ar
    52   45   48      ar
    53   43   72       1
    54    5   49       1
    55    5   50       1
    56    6   51       1
    57    8   52       1
    58    9   53       1
    59   10   54       1
    60   12   55       1
    61   14   56       1
    62   18   57       1
    63   18   58       1
    64   20   59       1
    65   44   73       1
    66   28   60       1
    67   28   61       1
    68   29   62       1
    69   31   63       1
    70   32   64       1
    71   33   65       1
    72   34   66       1
    73   35   67       1
    74   37   68       1
    75   41   69       1
    76   41   70       1
    77   42   71       1
@<TRIPOS>SUBSTRUCTURE
     1 NDP313      1 GROUP             4 A     NDP     0 **** NDP A 313
