@<TRIPOS>MOLECULE
2f7z_6EA_1_ligand
   52    56     1     0     0
SMALL
NO_CHARGES


@<TRIPOS>ATOM
     1 N1           2.9020    10.0600     4.3680 N.ar         1 6EA1000   0.0000
     2 C2           3.2310    10.1650     3.0480 C.ar         1 6EA1000   0.0000
     3 C3           4.5410    10.0110     2.5760 C.ar         1 6EA1000   0.0000
     4 C4           5.5800     9.7300     3.4830 C.ar         1 6EA1000   0.0000
     5 C5           5.2410     9.6190     4.8480 C.ar         1 6EA1000   0.0000
     6 C6           3.9020     9.7920     5.2450 C.ar         1 6EA1000   0.0000
     7 C11          6.9720     9.5540     2.9540 C.ar         1 6EA1000   0.0000
     8 C12          8.0960     9.2490     3.7440 C.ar         1 6EA1000   0.0000
     9 C13          9.3610     9.0880     3.1270 C.ar         1 6EA1000   0.0000
    10 C14          9.5170     9.2370     1.7100 C.ar         1 6EA1000   0.0000
    11 C15          8.3610     9.5600     0.9160 C.ar         1 6EA1000   0.0000
    12 N16          7.1440     9.7000     1.5700 N.ar         1 6EA1000   0.0000
    13 C19         10.7930     9.0620     1.0890 C.ar         1 6EA1000   0.0000
    14 C20         10.8320     9.2390    -0.3310 C.ar         1 6EA1000   0.0000
    15 N21          9.7400     9.5540    -1.0860 N.ar         1 6EA1000   0.0000
    16 C22          8.5110     9.7130    -0.4950 C.ar         1 6EA1000   0.0000
    17 O25         11.8800     8.7240     1.9190 O.3          1 6EA1000   0.0000
    18 C26         13.1430     8.5150     1.3510 C.3          1 6EA1000   0.0000
    19 C27         14.0390     8.1900     2.5350 C.3          1 6EA1000   0.0000
    20 N30         14.9040     7.0930     2.1470 N.4          1 6EA1000   1.0000
    21 C31         14.9100     9.3740     3.0400 C.3          1 6EA1000   0.0000
    22 C33         15.5050    10.3030     1.9940 C.2          1 6EA1000   0.0000
    23 C36         16.7680    10.1490     1.4520 C.2          1 6EA1000   0.0000
    24 N37         17.0050    11.1430     0.5400 N.pl3        1 6EA1000   0.0000
    25 C38         15.8950    11.9620     0.4760 C.ar         1 6EA1000   0.0000
    26 C39         14.9200    11.4650     1.3800 C.ar         1 6EA1000   0.0000
    27 C43         15.6910    13.0930    -0.3150 C.ar         1 6EA1000   0.0000
    28 C44         14.4550    13.7860    -0.2210 C.ar         1 6EA1000   0.0000
    29 C45         13.4350    13.3330     0.6720 C.ar         1 6EA1000   0.0000
    30 C46         13.6480    12.1790     1.4800 C.ar         1 6EA1000   0.0000
    31 H1           2.5051    10.3605     2.3885 H            1 6EA1000   0.0000
    32 H2           4.7370    10.1003     1.5995 H            1 6EA1000   0.0000
    33 H3           5.9465     9.4190     5.5279 H            1 6EA1000   0.0000
    34 H4           3.6776     9.7140     6.2164 H            1 6EA1000   0.0000
    35 H5           8.0023     9.1466     4.7343 H            1 6EA1000   0.0000
    36 H6          10.1579     8.8668     3.6891 H            1 6EA1000   0.0000
    37 H7          11.7098     9.1253    -0.7963 H            1 6EA1000   0.0000
    38 H8           7.7152     9.9376    -1.0573 H            1 6EA1000   0.0000
    39 H9          13.4610     9.3389     0.8819 H            1 6EA1000   0.0000
    40 H10         13.1189     7.7519     0.7051 H            1 6EA1000   0.0000
    41 H11         13.4609     7.8815     3.2904 H            1 6EA1000   0.0000
    42 H12         15.5063     6.8576     2.9098 H            1 6EA1000   0.0000
    43 H13         14.3468     6.2987     1.9048 H            1 6EA1000   0.0000
    44 H14         15.6691     8.9860     3.5627 H            1 6EA1000   0.0000
    45 H15         14.3389     9.9297     3.6442 H            1 6EA1000   0.0000
    46 H16         17.4114     9.4214     1.6901 H            1 6EA1000   0.0000
    47 H17         17.8440    11.2569     0.0079 H            1 6EA1000   0.0000
    48 H18         16.4047    13.4110    -0.9391 H            1 6EA1000   0.0000
    49 H19         14.2970    14.5972    -0.7840 H            1 6EA1000   0.0000
    50 H20         12.5681    13.8282     0.7299 H            1 6EA1000   0.0000
    51 H21         12.9368    11.8615     2.1073 H            1 6EA1000   0.0000
    52 H22         15.4555     7.3661     1.3588 H            1 6EA1000   0.0000
@<TRIPOS>BOND
     1    1    2      ar
     2    1    6      ar
     3    2    3      ar
     4    3    4      ar
     5    4    5      ar
     6    4    7       1
     7    5    6      ar
     8    7    8      ar
     9    7   12      ar
    10    8    9      ar
    11    9   10      ar
    12   10   11      ar
    13   10   13      ar
    14   11   12      ar
    15   11   16      ar
    16   13   14      ar
    17   13   17       1
    18   14   15      ar
    19   15   16      ar
    20   17   18       1
    21   18   19       1
    22   19   20       1
    23   19   21       1
    24   21   22       1
    25   22   23       2
    26   22   26       1
    27   23   24       1
    28   24   25       1
    29   25   26      ar
    30   25   27      ar
    31   26   30      ar
    32   27   28      ar
    33   28   29      ar
    34   29   30      ar
    35    2   31       1
    36    3   32       1
    37    5   33       1
    38    6   34       1
    39    8   35       1
    40    9   36       1
    41   14   37       1
    42   16   38       1
    43   18   39       1
    44   18   40       1
    45   19   41       1
    46   20   42       1
    47   20   43       1
    48   21   44       1
    49   21   45       1
    50   23   46       1
    51   24   47       1
    52   27   48       1
    53   28   49       1
    54   29   50       1
    55   30   51       1
    56   20   52       1
@<TRIPOS>SUBSTRUCTURE
     1 6EA1000     1 GROUP             4 E     6EA     0 **** 6EA E1000
