@<TRIPOS>MOLECULE
1bye_ATA_3_ligand
   62    62     1     0     0
SMALL
NO_CHARGES


@<TRIPOS>ATOM
     1 N'         -24.2760    37.3790    75.0100 N.4          1 ATA1003   1.0000
     2 CA'        -25.0030    37.2040    76.3030 C.3          1 ATA1003   0.0000
     3 CB'        -24.2600    37.8750    77.4540 C.3          1 ATA1003   0.0000
     4 CG'        -25.0100    37.9230    78.7820 C.3          1 ATA1003   0.0000
     5 CC'        -26.4180    37.7770    76.1660 C.2          1 ATA1003   0.0000
     6 O1'        -27.3630    36.9730    76.3340 O.co2        1 ATA1003   0.0000
     7 O2'        -26.5390    39.0210    76.1370 O.co2        1 ATA1003  -1.0000
     8 C'         -24.3950    38.9430    79.7520 C.2          1 ATA1003   0.0000
     9 O'         -23.5510    39.7060    79.2580 O.2          1 ATA1003   0.0000
    10 N5         -24.2000    45.4910    84.5210 N.ar         1 ATA1003   0.0000
    11 C6         -24.4150    45.6800    83.2080 C.ar         1 ATA1003   0.0000
    12 N1         -24.7790    44.7370    82.3370 N.ar         1 ATA1003   0.0000
    13 C2         -24.7530    43.4980    82.8390 C.ar         1 ATA1003   0.0000
    14 N3         -24.5050    43.1730    84.1200 N.ar         1 ATA1003   0.0000
    15 C4         -23.9830    44.1920    84.8400 C.ar         1 ATA1003   0.0000
    16 N          -24.4310    38.6090    81.0320 N.am         1 ATA1003   0.0000
    17 CA         -24.4730    39.4210    82.2320 C.3          1 ATA1003   0.0000
    18 C          -24.8710    38.5750    83.4540 C.2          1 ATA1003   0.0000
    19 O          -26.0770    38.4940    83.7240 O.2          1 ATA1003   0.0000
    20 CB         -25.4130    40.6450    82.1580 C.3          1 ATA1003   0.0000
    21 SG         -24.5820    42.1950    81.6420 S.3          1 ATA1003   0.0000
    22 N7         -22.7690    43.9950    85.7200 N.pl3        1 ATA1003   0.0000
    23 N11        -24.0490    47.0090    82.6650 N.pl3        1 ATA1003   0.0000
    24 C12        -24.4320    48.0730    83.6260 C.3          1 ATA1003   0.0000
    25 C13        -23.7420    49.3960    83.2240 C.3          1 ATA1003   0.0000
    26 C8         -22.7110    42.8130    86.6270 C.3          1 ATA1003   0.0000
    27 C9         -23.7420    42.8730    87.7570 C.3          1 ATA1003   0.0000
    28 C10        -22.5470    41.4220    85.9890 C.3          1 ATA1003   0.0000
    29 ND         -23.9390    38.4570    84.3960 N.am         1 ATA1003   0.0000
    30 CAD        -22.6950    37.7490    84.1270 C.3          1 ATA1003   0.0000
    31 CD         -22.8020    36.2800    84.5030 C.2          1 ATA1003   0.0000
    32 OD         -22.1610    35.4370    83.8370 O.co2        1 ATA1003   0.0000
    33 OT'        -23.6040    35.9710    85.4140 O.co2        1 ATA1003  -1.0000
    34 H'1        -24.0388    36.4820    74.6369 H            1 ATA1003   0.0000
    35 H'2        -24.8615    37.8655    74.3616 H            1 ATA1003   0.0000
    36 HA'        -25.0738    36.2257    76.4979 H            1 ATA1003   0.0000
    37 HB'1       -24.0553    38.8152    77.1818 H            1 ATA1003   0.0000
    38 HB'2       -23.4054    37.3769    77.6008 H            1 ATA1003   0.0000
    39 HG'1       -24.9789    37.0167    79.2036 H            1 ATA1003   0.0000
    40 HG'2       -25.9613    38.1766    78.6068 H            1 ATA1003   0.0000
    41 H8         -24.4289    37.6234    81.2011 H            1 ATA1003   0.0000
    42 HA         -23.5476    39.7637    82.3939 H            1 ATA1003   0.0000
    43 HB1        -25.8130    40.7892    83.0631 H            1 ATA1003   0.0000
    44 HB2        -26.1394    40.4441    81.5007 H            1 ATA1003   0.0000
    45 H12        -22.0138    44.6500    85.6939 H            1 ATA1003   0.0000
    46 H13        -23.6087    47.1660    81.7810 H            1 ATA1003   0.0000
    47 H14        -24.1426    47.8116    84.5468 H            1 ATA1003   0.0000
    48 H15        -25.4243    48.1956    83.6107 H            1 ATA1003   0.0000
    49 H16        -23.9982    50.1152    83.8699 H            1 ATA1003   0.0000
    50 H17        -22.7498    49.2724    83.2390 H            1 ATA1003   0.0000
    51 H18        -24.0315    49.6565    82.3030 H            1 ATA1003   0.0000
    52 H19        -21.8439    42.9423    87.1080 H            1 ATA1003   0.0000
    53 H20        -23.6563    42.0580    88.3301 H            1 ATA1003   0.0000
    54 H21        -23.5812    43.6892    88.3120 H            1 ATA1003   0.0000
    55 H22        -24.6621    42.9111    87.3671 H            1 ATA1003   0.0000
    56 H23        -22.5232    40.7266    86.7072 H            1 ATA1003   0.0000
    57 H24        -23.3174    41.2430    85.3771 H            1 ATA1003   0.0000
    58 H25        -21.6938    41.3926    85.4682 H            1 ATA1003   0.0000
    59 HD         -24.0943    38.8588    85.2985 H            1 ATA1003   0.0000
    60 HAD1       -21.9599    38.1686    84.6594 H            1 ATA1003   0.0000
    61 HAD2       -22.4836    37.8210    83.1523 H            1 ATA1003   0.0000
    62 H'3        -23.4410    37.9067    75.1659 H            1 ATA1003   0.0000
@<TRIPOS>BOND
     1    1    2       1
     2    2    3       1
     3    2    5       1
     4    3    4       1
     5    4    8       1
     6    5    6      ar
     7    5    7      ar
     8    8    9       2
     9    8   16      am
    10   10   11      ar
    11   10   15      ar
    12   11   12      ar
    13   11   23       1
    14   12   13      ar
    15   13   14      ar
    16   13   21       1
    17   14   15      ar
    18   15   22       1
    19   16   17       1
    20   17   18       1
    21   17   20       1
    22   18   19       2
    23   18   29      am
    24   20   21       1
    25   22   26       1
    26   23   24       1
    27   24   25       1
    28   26   27       1
    29   26   28       1
    30   29   30       1
    31   30   31       1
    32   31   32      ar
    33   31   33      ar
    34    1   34       1
    35    1   35       1
    36    2   36       1
    37    3   37       1
    38    3   38       1
    39    4   39       1
    40    4   40       1
    41    1   62       1
    42   16   41       1
    43   17   42       1
    44   20   43       1
    45   20   44       1
    46   22   45       1
    47   23   46       1
    48   24   47       1
    49   24   48       1
    50   25   49       1
    51   25   50       1
    52   25   51       1
    53   26   52       1
    54   27   53       1
    55   27   54       1
    56   27   55       1
    57   28   56       1
    58   28   57       1
    59   28   58       1
    60   29   59       1
    61   30   60       1
    62   30   61       1
@<TRIPOS>SUBSTRUCTURE
     1 ATA1003     1 GROUP             4 C     ATA     0 **** ATA C1003
