@<TRIPOS>MOLECULE
2z02_ATP_2_ligand
   43    45     1     0     0
SMALL
NO_CHARGES


@<TRIPOS>ATOM
     1 PG          -6.0090    33.5650     7.5050 P.3          1 ATP1526   0.0000
     2 O1G         -5.1090    34.6710     7.8930 O.co2        1 ATP1526   0.0000
     3 O2G         -7.5470    33.7570     7.0610 O.co2        1 ATP1526  -1.0000
     4 O3G         -5.5720    32.0900     8.0180 O.co2        1 ATP1526  -1.0000
     5 PB          -7.2730    35.1240     9.3610 P.3          1 ATP1526   0.0000
     6 O1B         -8.5710    35.1220    10.0360 O.co2        1 ATP1526   0.0000
     7 O2B         -6.3220    36.4100     9.3770 O.co2        1 ATP1526  -1.0000
     8 O3B         -6.6140    33.6640     9.0320 O.3          1 ATP1526   0.0000
     9 PA          -7.4180    34.1390    11.9850 P.3          1 ATP1526   0.0000
    10 O1A         -8.0520    35.0310    12.9620 O.co2        1 ATP1526   0.0000
    11 O2A         -7.2020    32.5710    12.2530 O.co2        1 ATP1526  -1.0000
    12 O3A         -6.5120    34.8700    10.8150 O.3          1 ATP1526   0.0000
    13 O5'         -6.1080    34.4310    12.9580 O.3          1 ATP1526   0.0000
    14 C5'         -5.0710    33.4200    12.8720 C.3          1 ATP1526   0.0000
    15 C4'         -3.7700    34.0210    12.3260 C.3          1 ATP1526   0.0000
    16 O4'         -2.6110    33.5000    13.0640 O.3          1 ATP1526   0.0000
    17 C3'         -3.5810    33.6470    10.8460 C.3          1 ATP1526   0.0000
    18 O3'         -3.2070    34.8060    10.0880 O.3          1 ATP1526   0.0000
    19 C2'         -2.4980    32.5610    10.8780 C.3          1 ATP1526   0.0000
    20 O2'         -1.7550    32.5290     9.6560 O.3          1 ATP1526   0.0000
    21 C1'         -1.6570    32.9520    12.1110 C.3          1 ATP1526   0.0000
    22 N9          -0.9740    31.7940    12.7250 N.pl3        1 ATP1526   0.0000
    23 C8          -1.4770    30.5280    12.9070 C.2          1 ATP1526   0.0000
    24 N7          -0.6570    29.8140    13.6320 N.2          1 ATP1526   0.0000
    25 C5           0.4790    30.5220    13.8470 C.ar         1 ATP1526   0.0000
    26 C6           1.7270    30.2700    14.4960 C.ar         1 ATP1526   0.0000
    27 N6           2.0040    29.0330    15.0420 N.pl3        1 ATP1526   0.0000
    28 N1           2.6410    31.2680    14.5620 N.ar         1 ATP1526   0.0000
    29 C2           2.4210    32.4600    13.9910 C.ar         1 ATP1526   0.0000
    30 N3           1.2900    32.7140    13.3220 N.ar         1 ATP1526   0.0000
    31 C4           0.2950    31.8020    13.2540 C.ar         1 ATP1526   0.0000
    32 H5'1        -5.3758    32.6885    12.2620 H            1 ATP1526   0.0000
    33 H5'2        -4.9020    33.0451    13.7835 H            1 ATP1526   0.0000
    34 H4'         -3.8007    35.0165    12.4157 H            1 ATP1526   0.0000
    35 H3'         -4.4311    33.2657    10.4827 H            1 ATP1526   0.0000
    36 H5          -3.8912    34.9754     9.3786 H            1 ATP1526   0.0000
    37 H2'         -2.9237    31.6695    11.0333 H            1 ATP1526   0.0000
    38 H7          -2.1947    31.8999     9.0149 H            1 ATP1526   0.0000
    39 H1'         -0.9864    33.6499    11.8595 H            1 ATP1526   0.0000
    40 H9          -2.3464    30.2000    12.5374 H            1 ATP1526   0.0000
    41 H10          2.8815    28.8708    15.4932 H            1 ATP1526   0.0000
    42 H11          1.3272    28.2990    14.9863 H            1 ATP1526   0.0000
    43 H12          3.1163    33.1747    14.0663 H            1 ATP1526   0.0000
@<TRIPOS>BOND
     1    1    2      ar
     2    1    3      ar
     3    1    4      ar
     4    1    8       1
     5    5    6      ar
     6    5    7      ar
     7    5    8       1
     8    5   12       1
     9    9   10      ar
    10    9   11      ar
    11    9   12       1
    12    9   13       1
    13   13   14       1
    14   14   15       1
    15   15   16       1
    16   15   17       1
    17   16   21       1
    18   17   18       1
    19   17   19       1
    20   19   20       1
    21   19   21       1
    22   21   22       1
    23   22   23       1
    24   22   31       1
    25   23   24       2
    26   24   25       1
    27   25   26      ar
    28   25   31      ar
    29   26   27       1
    30   26   28      ar
    31   28   29      ar
    32   29   30      ar
    33   30   31      ar
    34   29   43       1
    35   27   42       1
    36   27   41       1
    37   23   40       1
    38   14   32       1
    39   14   33       1
    40   15   34       1
    41   17   35       1
    42   18   36       1
    43   19   37       1
    44   20   38       1
    45   21   39       1
@<TRIPOS>SUBSTRUCTURE
     1 ATP1526     1 GROUP             4 B     ATP     0 **** ATP B1526
