@<TRIPOS>MOLECULE
./coach420/2irx/ligand.pdb
 32 32 0 0 0
SMALL
GASTEIGER

@<TRIPOS>ATOM
      1 MN         25.0220   38.6590   12.9730 Mn    304  MN304       0.0000
      2  O1G       22.8830   36.0990   14.3990 O.3   305  GTP305      0.0000
      3  O2G       25.2440   36.7730   14.0770 O.3   305  GTP305      0.0000
      4  O3G       24.6700   34.4060   14.6850 O.3   305  GTP305      0.0000
      5  O3B       24.0190   35.1970   12.4240 O.2   305  GTP305     -0.5000
      6  PB        24.4080   35.9730   11.0760 P.3   305  GTP305      0.0000
      7  O1B       24.2730   37.4550   11.2100 O.3   305  GTP305      0.0000
      8  O2B       23.5540   35.4870    9.9700 O.3   305  GTP305     -0.5000
      9  O3A       25.9670   35.6600   10.9660 O.3   305  GTP305      0.0000
     10  PA        26.8290   34.7110    9.9910 P.3   305  GTP305      0.0000
     11  O1A       26.0040   33.5720    9.4510 O.2   305  GTP305     -0.5000
     12  O2A       28.0090   34.2870   10.8340 O.3   305  GTP305     -0.5000
     13  O5'       27.2850   35.6880    8.8210 O.3   305  GTP305      0.0000
     14  C5'       28.0060   36.9040    9.0560 C.3   305  GTP305      0.0000
     15  C4'       28.5950   37.4100    7.7320 C.3   305  GTP305      0.0000
     16  O4'       29.4530   36.4620    7.0970 O.3   305  GTP305      0.0000
     17  C3'       27.5180   37.7250    6.7110 C.3   305  GTP305      0.0000
     18  O3'       28.0520   38.7710    5.9440 O.3   305  GTP305      0.0000
     19  C2'       27.4380   36.4520    5.8540 C.3   305  GTP305      0.0000
     20  O2'       26.9380   36.5620    4.5280 O.3   305  GTP305      0.0000
     21  C1'       28.8840   35.9840    5.8640 C.3   305  GTP305      0.0000
     22  N9        29.1440   34.5380    5.9730 N.ar  305  GTP305      0.0000
     23  C8        28.4470   33.5720    6.6550 C.ar  305  GTP305      0.0000
     24  N7        29.1330   32.4150    6.5270 N.ar  305  GTP305      0.0000
     25  C5        30.2660   32.6510    5.8130 C.ar  305  GTP305      0.0000
     26  C6        31.3290   31.8300    5.4140 C.ar  305  GTP305      0.0000
     27  O6        31.3380   30.6290    5.6980 O.2   305  GTP305      0.0000
     28  N1        32.3810   32.3910    4.6940 N.ar  305  GTP305      0.0000
     29  C2        32.3900   33.7370    4.3670 C.ar  305  GTP305      0.0000
     30  N2        33.4050   34.2450    3.6540 N.pl3 305  GTP305      0.0000
     31  N3        31.3250   34.5480    4.7620 N.ar  305  GTP305      0.0000
     32  C4        30.2860   33.9950    5.4770 C.ar  305  GTP305      0.0000
@<TRIPOS>BOND
     1     1     7    1
     2     1     3    1
     3     5     6    2
     4     6     8    1
     5     6     9    1
     6     6     7    1
     7     9    10    1
     8    10    13    1
     9    10    11    2
    10    10    12    1
    11    13    14    1
    12    14    15    1
    13    15    17    1
    14    15    16    1
    15    16    21    1
    16    17    19    1
    17    17    18    1
    18    19    20    1
    19    19    21    1
    20    21    22    1
    21    22    32   ar
    22    22    23   ar
    23    23    24   ar
    24    24    25   ar
    25    25    26   ar
    26    25    32   ar
    27    26    28   ar
    28    26    27    2
    29    28    29   ar
    30    29    30    1
    31    29    31   ar
    32    31    32   ar
