@<TRIPOS>MOLECULE
4ynt_FDA_1_ligand
   84    89     1     0     0
SMALL
NO_CHARGES


@<TRIPOS>ATOM
     1 PA          26.9250    39.6690    56.4100 P.3          1 FDA601   0.0000
     2 O1A         28.0730    40.4910    55.8830 O.co2        1 FDA601   0.0000
     3 O2A         25.7820    39.3320    55.4690 O.co2        1 FDA601  -1.0000
     4 O5B         26.2000    40.3820    57.6600 O.3          1 FDA601   0.0000
     5 C5B         26.9180    41.1420    58.6250 C.3          1 FDA601   0.0000
     6 C4B         26.0870    42.3600    58.9890 C.3          1 FDA601   0.0000
     7 O4B         26.7000    42.9710    60.1350 O.3          1 FDA601   0.0000
     8 C3B         26.0480    43.3950    57.8710 C.3          1 FDA601   0.0000
     9 O3B         24.6980    43.8470    57.6640 O.3          1 FDA601   0.0000
    10 C2B         26.9470    44.4950    58.4160 C.3          1 FDA601   0.0000
    11 O2B         26.6300    45.7990    57.9460 O.3          1 FDA601   0.0000
    12 C1B         26.7050    44.3750    59.9040 C.3          1 FDA601   0.0000
    13 N9A         27.7390    44.9440    60.7520 N.pl3        1 FDA601   0.0000
    14 C8A         29.0500    44.6490    60.6700 C.2          1 FDA601   0.0000
    15 N7A         29.7210    45.2530    61.6710 N.2          1 FDA601   0.0000
    16 C5A         28.7920    45.7150    62.5390 C.ar         1 FDA601   0.0000
    17 C6A         28.8260    46.4500    63.8060 C.ar         1 FDA601   0.0000
    18 N6A         30.0000    46.5550    64.4680 N.pl3        1 FDA601   0.0000
    19 N1A         27.6360    46.8360    64.3410 N.ar         1 FDA601   0.0000
    20 C2A         26.4580    46.6370    63.7060 C.ar         1 FDA601   0.0000
    21 N3A         26.3640    46.0210    62.5120 N.ar         1 FDA601   0.0000
    22 C4A         27.4820    45.5320    61.9180 C.ar         1 FDA601   0.0000
    23 N1          27.1990    34.0970    48.3100 N.2          1 FDA601   0.0000
    24 C2          26.2470    33.4570    47.6200 C.2          1 FDA601   0.0000
    25 O2          25.5860    32.5650    48.2080 O.2          1 FDA601   0.0000
    26 N3          26.0300    33.6840    46.3190 N.pl3        1 FDA601   0.0000
    27 C4          26.7690    34.5460    45.5860 C.2          1 FDA601   0.0000
    28 O4          26.6020    34.6860    44.3500 O.2          1 FDA601   0.0000
    29 C4X         27.8300    35.3010    46.2740 C.2          1 FDA601   0.0000
    30 N5          28.5750    36.2330    45.6530 N.2          1 FDA601   0.0000
    31 C5X         29.2150    37.1580    46.3870 C.ar         1 FDA601   0.0000
    32 C6          29.6700    38.3280    45.7900 C.ar         1 FDA601   0.0000
    33 C7          30.2890    39.3100    46.5540 C.ar         1 FDA601   0.0000
    34 C7M         30.6770    40.6110    45.8990 C.3          1 FDA601   0.0000
    35 C8          30.4190    39.1300    48.0260 C.ar         1 FDA601   0.0000
    36 C8M         31.0600    40.1900    48.8790 C.3          1 FDA601   0.0000
    37 C9          29.9960    37.9480    48.6240 C.ar         1 FDA601   0.0000
    38 C9A         29.3850    36.9620    47.8550 C.ar         1 FDA601   0.0000
    39 N10         28.8520    35.8000    48.4680 N.pl3        1 FDA601   0.0000
    40 C10         27.9470    35.0430    47.7260 C.2          1 FDA601   0.0000
    41 C1'         29.1040    35.4630    49.8680 C.3          1 FDA601   0.0000
    42 C2'         27.8990    35.7510    50.7580 C.3          1 FDA601   0.0000
    43 O2'         27.1010    36.8260    50.2430 O.3          1 FDA601   0.0000
    44 C3'         28.3750    36.0990    52.1610 C.3          1 FDA601   0.0000
    45 O3'         29.2730    35.0900    52.6020 O.3          1 FDA601   0.0000
    46 C4'         27.2380    36.1740    53.1680 C.3          1 FDA601   0.0000
    47 O4'         26.2850    37.1210    52.7160 O.3          1 FDA601   0.0000
    48 C5'         27.7820    36.5280    54.5540 C.3          1 FDA601   0.0000
    49 O5'         26.7410    36.4630    55.5410 O.3          1 FDA601   0.0000
    50 P           27.0950    36.7850    57.0570 P.3          1 FDA601   0.0000
    51 O1P         25.8090    36.6760    57.8620 O.co2        1 FDA601   0.0000
    52 O2P         28.2720    36.0030    57.5340 O.co2        1 FDA601  -1.0000
    53 O3P         27.5780    38.3420    57.0700 O.3          1 FDA601   0.0000
    54 H5B1        27.7945    41.4332    58.2417 H            1 FDA601   0.0000
    55 H5B2        27.0790    40.5866    59.4409 H            1 FDA601   0.0000
    56 H4B         25.1557    42.0759    59.2171 H            1 FDA601   0.0000
    57 H3B         26.4265    43.0163    57.0264 H            1 FDA601   0.0000
    58 H5          24.3519    44.2601    58.5064 H            1 FDA601   0.0000
    59 H2B         27.9026    44.2841    58.2104 H            1 FDA601   0.0000
    60 H7          25.9683    46.2242    58.5635 H            1 FDA601   0.0000
    61 H1B         25.8148    44.7649    60.1396 H            1 FDA601   0.0000
    62 H8A         29.4647    44.0677    59.9699 H            1 FDA601   0.0000
    63 H6A1        30.0428    47.0528    65.3342 H            1 FDA601   0.0000
    64 H6A2        30.8257    46.1349    64.0915 H            1 FDA601   0.0000
    65 H2A         25.6192    46.9620    64.1429 H            1 FDA601   0.0000
    66 H13         25.2854    33.1922    45.8677 H            1 FDA601   0.0000
    67 H14         29.5514    38.4636    44.8064 H            1 FDA601   0.0000
    68 H7M1        31.1084    41.2088    46.5747 H            1 FDA601   0.0000
    69 H7M2        31.3200    40.4307    45.1547 H            1 FDA601   0.0000
    70 H7M3        29.8600    41.0566    45.5331 H            1 FDA601   0.0000
    71 H8M1        31.0580    39.8952    49.8346 H            1 FDA601   0.0000
    72 H8M2        32.0021    40.3361    48.5772 H            1 FDA601   0.0000
    73 H8M3        30.5461    41.0435    48.7923 H            1 FDA601   0.0000
    74 H21         30.1306    37.8067    49.6048 H            1 FDA601   0.0000
    75 H1'1        29.8807    36.0020    50.1938 H            1 FDA601   0.0000
    76 H1'2        29.3243    34.4895    49.9299 H            1 FDA601   0.0000
    77 H2'         27.3334    34.9278    50.8070 H            1 FDA601   0.0000
    78 H25         26.6590    37.3058    51.0009 H            1 FDA601   0.0000
    79 H3'         28.8526    36.9773    52.1380 H            1 FDA601   0.0000
    80 H27         29.3745    34.3984    51.8869 H            1 FDA601   0.0000
    81 H4'         26.7973    35.2777    53.2182 H            1 FDA601   0.0000
    82 H29         25.5331    37.1768    53.3729 H            1 FDA601   0.0000
    83 H5'1        28.1563    37.4551    54.5325 H            1 FDA601   0.0000
    84 H5'2        28.5055    35.8820    54.7973 H            1 FDA601   0.0000
@<TRIPOS>BOND
     1    1    2      ar
     2    1    3      ar
     3    1    4       1
     4    1   53       1
     5    4    5       1
     6    5    6       1
     7    6    7       1
     8    6    8       1
     9    7   12       1
    10    8    9       1
    11    8   10       1
    12   10   11       1
    13   10   12       1
    14   12   13       1
    15   13   14       1
    16   13   22       1
    17   14   15       2
    18   15   16       1
    19   16   17      ar
    20   16   22      ar
    21   17   18       1
    22   17   19      ar
    23   19   20      ar
    24   20   21      ar
    25   21   22      ar
    26   23   24       1
    27   23   40       2
    28   24   25       2
    29   24   26       1
    30   26   27       1
    31   27   28       2
    32   27   29       1
    33   29   30       2
    34   29   40       1
    35   30   31       1
    36   31   32      ar
    37   31   38      ar
    38   32   33      ar
    39   33   34       1
    40   33   35      ar
    41   35   36       1
    42   35   37      ar
    43   37   38      ar
    44   38   39       1
    45   39   40       1
    46   39   41       1
    47   41   42       1
    48   42   43       1
    49   42   44       1
    50   44   45       1
    51   44   46       1
    52   46   47       1
    53   46   48       1
    54   48   49       1
    55   49   50       1
    56   50   51      ar
    57   50   52      ar
    58   50   53       1
    59   48   84       1
    60    5   54       1
    61    5   55       1
    62    6   56       1
    63    8   57       1
    64    9   58       1
    65   10   59       1
    66   11   60       1
    67   12   61       1
    68   14   62       1
    69   18   63       1
    70   18   64       1
    71   20   65       1
    72   26   66       1
    73   32   67       1
    74   34   68       1
    75   34   69       1
    76   34   70       1
    77   36   71       1
    78   36   72       1
    79   36   73       1
    80   37   74       1
    81   41   75       1
    82   41   76       1
    83   42   77       1
    84   43   78       1
    85   44   79       1
    86   45   80       1
    87   46   81       1
    88   47   82       1
    89   48   83       1
@<TRIPOS>SUBSTRUCTURE
     1 FDA601      1 GROUP             4 A     FDA     0 **** FDA A 601
