@<TRIPOS>MOLECULE
4iic_IFM_2_ligand
   24    24     1     0     0
SMALL
NO_CHARGES


@<TRIPOS>ATOM
     1 O4          54.5260    12.6220   -19.2230 O.3          1 IFM950   0.0000
     2 C4          54.2000    11.2430   -19.6270 C.3          1 IFM950   0.0000
     3 C3          53.3040    11.3690   -20.8790 C.3          1 IFM950   0.0000
     4 O3          52.0600    12.0430   -20.4880 O.3          1 IFM950   0.0000
     5 C2          52.9170     9.9150   -21.3140 C.3          1 IFM950   0.0000
     6 N           54.1260     9.1350   -21.7170 N.4          1 IFM950   1.0000
     7 C1          55.1530     9.0920   -20.6190 C.3          1 IFM950   0.0000
     8 C5          55.5010    10.5230   -20.0480 C.3          1 IFM950   0.0000
     9 C6          56.5120    10.4570   -18.8610 C.3          1 IFM950   0.0000
    10 O6          56.0500     9.5340   -17.8320 O.3          1 IFM950   0.0000
    11 H1          54.6579    12.6568   -18.2323 H            1 IFM950   0.0000
    12 H2          53.7325    10.7499   -18.8933 H            1 IFM950   0.0000
    13 H3          53.7704    11.8595   -21.6151 H            1 IFM950   0.0000
    14 H4          51.7025    12.5602   -21.2656 H            1 IFM950   0.0000
    15 H5          52.2859     9.9627   -22.0883 H            1 IFM950   0.0000
    16 H6          52.4704     9.4528   -20.5479 H            1 IFM950   0.0000
    17 H7          54.5328     9.5623   -22.5244 H            1 IFM950   0.0000
    18 H8          55.9896     8.6803   -20.9803 H            1 IFM950   0.0000
    19 H9          54.7993     8.5279   -19.8729 H            1 IFM950   0.0000
    20 H10         55.9229    11.0538   -20.7830 H            1 IFM950   0.0000
    21 H11         56.6086    11.3691   -18.4626 H            1 IFM950   0.0000
    22 H12         57.3989    10.1473   -19.2037 H            1 IFM950   0.0000
    23 H13         55.9337    10.0271   -16.9698 H            1 IFM950   0.0000
    24 H14         53.8492     8.1999   -21.9384 H            1 IFM950   0.0000
@<TRIPOS>BOND
     1    1    2       1
     2    2    3       1
     3    2    8       1
     4    3    4       1
     5    3    5       1
     6    5    6       1
     7    6    7       1
     8    7    8       1
     9    8    9       1
    10    9   10       1
    11    1   11       1
    12    2   12       1
    13    3   13       1
    14    4   14       1
    15    5   15       1
    16    5   16       1
    17    6   17       1
    18    7   18       1
    19    7   19       1
    20    8   20       1
    21    9   21       1
    22    9   22       1
    23   10   23       1
    24    6   24       1
@<TRIPOS>SUBSTRUCTURE
     1 IFM950      1 GROUP             4 B     IFM     0 **** IFM B 950
