@<TRIPOS>MOLECULE
3dga_RJ1_2_ligand
   28    28     1     0     0
SMALL
NO_CHARGES


@<TRIPOS>ATOM
     1 C1          33.1120   -30.8450     6.3720 C.ar         1 RJ1609   0.0000
     2 C2          32.8290   -32.1630     6.6240 C.ar         1 RJ1609   0.0000
     3 C3          31.6160   -32.5530     7.0830 C.ar         1 RJ1609   0.0000
     4 C4          30.6140   -31.6390     7.2730 C.ar         1 RJ1609   0.0000
     5 C5          30.8390   -30.2680     7.0450 C.ar         1 RJ1609   0.0000
     6 C6          32.0950   -29.8960     6.5700 C.ar         1 RJ1609   0.0000
     7 CL7         29.1470   -32.2830     7.8370 Cl           1 RJ1609   0.0000
     8 C8          34.4940   -30.4720     5.8580 C.3          1 RJ1609   0.0000
     9 F9          34.5720   -29.1720     5.3930 F            1 RJ1609   0.0000
    10 F10         35.4710   -30.6230     6.8510 F            1 RJ1609   0.0000
    11 F11         34.8490   -31.2960     4.7820 F            1 RJ1609   0.0000
    12 N12         29.8420   -29.3120     7.2350 N.pl3        1 RJ1609   0.0000
    13 C13         28.6950   -28.8970     7.8840 C.2          1 RJ1609   0.0000
    14 N14         28.4270   -27.6520     8.3170 N.pl3        1 RJ1609   0.0000
    15 C15         28.9560   -26.4250     8.3700 C.cat        1 RJ1609   0.0000
    16 N16         28.7700   -25.6060     9.4190 N.pl3        1 RJ1609   0.0000
    17 N17         27.7710   -29.7720     8.0970 N.2          1 RJ1609   0.0000
    18 N18         29.6680   -26.0190     7.3800 N.pl3        1 RJ1609   1.0000
    19 H1          33.5354   -32.8528     6.4650 H            1 RJ1609   0.0000
    20 H2          31.4503   -33.5182     7.2852 H            1 RJ1609   0.0000
    21 H3          32.2763   -28.9340     6.3659 H            1 RJ1609   0.0000
    22 H4          29.1824   -24.6950     9.4214 H            1 RJ1609   0.0000
    23 H5          28.2192   -25.9075    10.1972 H            1 RJ1609   0.0000
    24 H6          30.0737   -25.1052     7.3974 H            1 RJ1609   0.0000
    25 H7          29.8163   -26.6169     6.5923 H            1 RJ1609   0.0000
    26 H8          27.5236   -27.6398     8.7457 H            1 RJ1609   0.0000
    27 H9          26.9280   -29.5054     8.5642 H            1 RJ1609   0.0000
    28 H10         30.0623   -28.5744     6.5967 H            1 RJ1609   0.0000
@<TRIPOS>BOND
     1    1    2      ar
     2    1    6      ar
     3    1    8       1
     4    2    3      ar
     5    3    4      ar
     6    4    5      ar
     7    4    7       1
     8    5    6      ar
     9    5   12       1
    10    8    9       1
    11    8   10       1
    12    8   11       1
    13   12   13       1
    14   13   14       1
    15   13   17       2
    16   14   15      ar
    17   15   16      ar
    18   15   18      ar
    19    2   19       1
    20    3   20       1
    21    6   21       1
    22   18   25       1
    23   16   22       1
    24   16   23       1
    25   12   28       1
    26   18   24       1
    27   14   26       1
    28   17   27       1
@<TRIPOS>SUBSTRUCTURE
     1 RJ1609      1 GROUP             4 B     RJ1     0 **** RJ1 B 609
