@<TRIPOS>MOLECULE
2gs9_SAH_2_ligand
   46    48     1     0     0
SMALL
NO_CHARGES


@<TRIPOS>ATOM
     1 N           69.6620    10.4720    17.7360 N.4          1 SAH1301   1.0000
     2 CA          69.8430    10.1550    16.3110 C.3          1 SAH1301   0.0000
     3 CB          68.4760    10.1890    15.5830 C.3          1 SAH1301   0.0000
     4 CG          67.8120    11.5800    15.6760 C.3          1 SAH1301   0.0000
     5 SD          66.2880    11.6160    14.6960 S.3          1 SAH1301   0.0000
     6 C           70.8140    11.1490    15.6850 C.2          1 SAH1301   0.0000
     7 O           71.5590    10.7880    14.7970 O.co2        1 SAH1301   0.0000
     8 OXT         70.8480    12.4310    16.1080 O.co2        1 SAH1301  -1.0000
     9 C5'         65.0440    11.3120    16.0000 C.3          1 SAH1301   0.0000
    10 C4'         64.8490     9.8060    16.2560 C.3          1 SAH1301   0.0000
    11 O4'         63.9250     9.6320    17.3570 O.3          1 SAH1301   0.0000
    12 C3'         64.2350     9.1130    15.0170 C.3          1 SAH1301   0.0000
    13 O3'         65.0990     8.0860    14.5200 O.3          1 SAH1301   0.0000
    14 C2'         62.8910     8.5540    15.5220 C.3          1 SAH1301   0.0000
    15 O2'         62.5330     7.3150    14.9040 O.3          1 SAH1301   0.0000
    16 C1'         63.1180     8.4490    17.0510 C.3          1 SAH1301   0.0000
    17 N9          61.8300     8.4660    17.7900 N.pl3        1 SAH1301   0.0000
    18 C8          60.6340     9.0320    17.3890 C.2          1 SAH1301   0.0000
    19 N7          59.7170     8.8500    18.2980 N.2          1 SAH1301   0.0000
    20 C5          60.2500     8.1620    19.3380 C.ar         1 SAH1301   0.0000
    21 C6          59.7630     7.6770    20.5880 C.ar         1 SAH1301   0.0000
    22 N6          58.4420     7.8810    20.9730 N.pl3        1 SAH1301   0.0000
    23 N1          60.6100     7.0120    21.3960 N.ar         1 SAH1301   0.0000
    24 C2          61.8880     6.7980    21.0540 C.ar         1 SAH1301   0.0000
    25 N3          62.3850     7.2340    19.8940 N.ar         1 SAH1301   0.0000
    26 C4          61.6170     7.9090    19.0200 C.ar         1 SAH1301   0.0000
    27 H1          70.5485    10.4479    18.1981 H            1 SAH1301   0.0000
    28 H2          69.2637    11.3848    17.8265 H            1 SAH1301   0.0000
    29 HA          70.2275     9.2353    16.2318 H            1 SAH1301   0.0000
    30 HB1         67.8698     9.5122    16.0007 H            1 SAH1301   0.0000
    31 HB2         68.6165     9.9610    14.6195 H            1 SAH1301   0.0000
    32 HG1         68.4447    12.2716    15.3276 H            1 SAH1301   0.0000
    33 HG2         67.5945    11.7785    16.6317 H            1 SAH1301   0.0000
    34 H5'1        64.1713    11.7086    15.7150 H            1 SAH1301   0.0000
    35 H5'2        65.3479    11.7486    16.8468 H            1 SAH1301   0.0000
    36 H4'         65.7272     9.3837    16.4804 H            1 SAH1301   0.0000
    37 H3'         64.0698     9.7901    14.2999 H            1 SAH1301   0.0000
    38 H12         65.2437     7.3988    15.2319 H            1 SAH1301   0.0000
    39 H2'         62.1718     9.2259    15.3450 H            1 SAH1301   0.0000
    40 H14         62.9011     6.5560    15.4411 H            1 SAH1301   0.0000
    41 H1'         63.6291     7.6172    17.2676 H            1 SAH1301   0.0000
    42 H16         60.4922     9.5131    16.5239 H            1 SAH1301   0.0000
    43 H17         58.1184     7.5337    21.8531 H            1 SAH1301   0.0000
    44 H18         57.8159     8.3750    20.3696 H            1 SAH1301   0.0000
    45 H19         62.4842     6.2994    21.6832 H            1 SAH1301   0.0000
    46 H20         69.0508     9.7988    18.1522 H            1 SAH1301   0.0000
@<TRIPOS>BOND
     1    1    2       1
     2    2    3       1
     3    2    6       1
     4    3    4       1
     5    4    5       1
     6    5    9       1
     7    6    7      ar
     8    6    8      ar
     9    9   10       1
    10   10   11       1
    11   10   12       1
    12   11   16       1
    13   12   13       1
    14   12   14       1
    15   14   15       1
    16   14   16       1
    17   16   17       1
    18   17   18       1
    19   17   26       1
    20   18   19       2
    21   19   20       1
    22   20   21      ar
    23   20   26      ar
    24   21   22       1
    25   21   23      ar
    26   23   24      ar
    27   24   25      ar
    28   25   26      ar
    29    1   27       1
    30    1   28       1
    31    2   29       1
    32    3   30       1
    33    3   31       1
    34    4   32       1
    35    4   33       1
    36    1   46       1
    37    9   34       1
    38    9   35       1
    39   10   36       1
    40   12   37       1
    41   13   38       1
    42   14   39       1
    43   15   40       1
    44   16   41       1
    45   18   42       1
    46   22   43       1
    47   22   44       1
    48   24   45       1
@<TRIPOS>SUBSTRUCTURE
     1 SAH1301     1 GROUP             4 B     SAH     0 **** SAH B1301
