@<TRIPOS>MOLECULE
4ybr_NAP_1_ligand
   73    77     1     0     0
SMALL
NO_CHARGES


@<TRIPOS>ATOM
     1 PA         -19.1390    22.0450   -18.3320 P.3          1 NAP301   0.0000
     2 O1A        -19.1510    23.3390   -17.6030 O.co2        1 NAP301   0.0000
     3 O2A        -20.5240    21.3580   -18.3720 O.co2        1 NAP301  -1.0000
     4 O5B        -18.5260    22.1500   -19.8430 O.3          1 NAP301   0.0000
     5 C5B        -17.8560    23.3350   -20.3120 C.3          1 NAP301   0.0000
     6 C4B        -17.7170    23.1610   -21.8020 C.3          1 NAP301   0.0000
     7 O4B        -16.8790    22.0110   -22.0480 O.3          1 NAP301   0.0000
     8 C3B        -19.0190    22.8920   -22.5500 C.3          1 NAP301   0.0000
     9 O3B        -18.9320    23.4650   -23.8460 O.3          1 NAP301   0.0000
    10 C2B        -19.0360    21.3670   -22.6610 C.3          1 NAP301   0.0000
    11 O2B        -19.8190    20.8900   -23.7730 O.3          1 NAP301   0.0000
    12 C1B        -17.5560    21.0640   -22.8470 C.3          1 NAP301   0.0000
    13 N9A        -17.1030    19.7320   -22.4440 N.pl3        1 NAP301   0.0000
    14 C8A        -17.0680    19.2130   -21.1750 C.2          1 NAP301   0.0000
    15 N7A        -16.4510    18.0590   -21.0830 N.2          1 NAP301   0.0000
    16 C5A        -16.0440    17.8020   -22.3830 C.ar         1 NAP301   0.0000
    17 C6A        -15.2610    16.7760   -22.9440 C.ar         1 NAP301   0.0000
    18 N6A        -14.6970    15.7930   -22.2230 N.pl3        1 NAP301   0.0000
    19 N1A        -15.0010    16.8380   -24.2690 N.ar         1 NAP301   0.0000
    20 C2A        -15.4860    17.8670   -24.9740 C.ar         1 NAP301   0.0000
    21 N3A        -16.2200    18.9040   -24.5510 N.ar         1 NAP301   0.0000
    22 C4A        -16.4580    18.8150   -23.2360 C.ar         1 NAP301   0.0000
    23 O3         -18.0720    21.0490   -17.6870 O.3          1 NAP301   0.0000
    24 PN         -18.2350    19.5510   -17.1600 P.3          1 NAP301   0.0000
    25 O1N        -18.6250    18.6740   -18.2970 O.co2        1 NAP301   0.0000
    26 O2N        -19.1390    19.6570   -15.9940 O.co2        1 NAP301  -1.0000
    27 O5D        -16.7870    19.2250   -16.5730 O.3          1 NAP301   0.0000
    28 C5D        -15.6510    18.9320   -17.4040 C.3          1 NAP301   0.0000
    29 C4D        -14.5730    18.2340   -16.6010 C.3          1 NAP301   0.0000
    30 O4D        -13.8830    19.1980   -15.7730 O.3          1 NAP301   0.0000
    31 C3D        -15.0210    17.1060   -15.6690 C.3          1 NAP301   0.0000
    32 O3D        -14.0570    16.0530   -15.6160 O.3          1 NAP301   0.0000
    33 C2D        -15.0850    17.8040   -14.3130 C.3          1 NAP301   0.0000
    34 O2D        -14.8620    16.8940   -13.2490 O.3          1 NAP301   0.0000
    35 C1D        -13.9050    18.7570   -14.4350 C.3          1 NAP301   0.0000
    36 N1N        -14.0000    19.9630   -13.5200 N.ar         1 NAP301   1.0000
    37 C2N        -13.1470    19.9650   -12.4780 C.ar         1 NAP301   0.0000
    38 C3N        -13.1280    21.0250   -11.5850 C.ar         1 NAP301   0.0000
    39 C7N        -12.0100    21.0770   -10.5680 C.2          1 NAP301   0.0000
    40 O7N        -11.0910    20.2400   -10.6150 O.2          1 NAP301   0.0000
    41 N7N        -12.0010    22.0590    -9.6850 N.am         1 NAP301   0.0000
    42 C4N        -14.0540    22.0580   -11.7620 C.ar         1 NAP301   0.0000
    43 C5N        -14.9230    22.0300   -12.8400 C.ar         1 NAP301   0.0000
    44 C6N        -14.8780    20.9690   -13.7220 C.ar         1 NAP301   0.0000
    45 P2B        -20.8860    19.6840   -23.5690 P.3          1 NAP301   0.0000
    46 O1X        -21.4170    19.3920   -25.0400 O.co2        1 NAP301   0.0000
    47 O2X        -20.1620    18.5440   -22.8850 O.co2        1 NAP301  -1.0000
    48 O3X        -22.0440    20.2430   -22.6310 O.co2        1 NAP301  -1.0000
    49 H5B1       -16.9556    23.4187   -19.8851 H            1 NAP301   0.0000
    50 H5B2       -18.3999    24.1482   -20.1050 H            1 NAP301   0.0000
    51 H4B        -17.2796    23.9735   -22.1874 H            1 NAP301   0.0000
    52 H3B        -19.8121    23.2349   -22.0467 H            1 NAP301   0.0000
    53 H5         -18.7861    24.4510   -23.7654 H            1 NAP301   0.0000
    54 H2B        -19.3663    20.9628   -21.8080 H            1 NAP301   0.0000
    55 H1B        -17.3119    21.2138   -23.8051 H            1 NAP301   0.0000
    56 H8A        -17.4774    19.6744   -20.3879 H            1 NAP301   0.0000
    57 H6A1       -14.1501    15.0900   -22.6777 H            1 NAP301   0.0000
    58 H6A2       -14.8240    15.7641   -21.2315 H            1 NAP301   0.0000
    59 H2A        -15.2707    17.8606   -25.9505 H            1 NAP301   0.0000
    60 H5D1       -15.2849    19.7858   -17.7741 H            1 NAP301   0.0000
    61 H5D2       -15.9376    18.3385   -18.1560 H            1 NAP301   0.0000
    62 H4D        -13.9096    17.8534   -17.2452 H            1 NAP301   0.0000
    63 H3D        -15.9194    16.7566   -15.9351 H            1 NAP301   0.0000
    64 H16        -14.5213    15.1845   -15.4424 H            1 NAP301   0.0000
    65 H2D        -15.9456    18.2998   -14.1966 H            1 NAP301   0.0000
    66 H18        -13.9575    16.4794   -13.3490 H            1 NAP301   0.0000
    67 H1D        -13.0595    18.2606   -14.2383 H            1 NAP301   0.0000
    68 H2N        -12.5220    19.1953   -12.3473 H            1 NAP301   0.0000
    69 H7N1       -11.2709    22.1122    -9.0037 H            1 NAP301   0.0000
    70 H7N2       -12.7243    22.7494    -9.6976 H            1 NAP301   0.0000
    71 H4N        -14.0886    22.8161   -11.1108 H            1 NAP301   0.0000
    72 H5N        -15.5781    22.7727   -12.9784 H            1 NAP301   0.0000
    73 H6N        -15.4944    20.9454   -14.5091 H            1 NAP301   0.0000
@<TRIPOS>BOND
     1    1    2      ar
     2    1    3      ar
     3    1    4       1
     4    1   23       1
     5    4    5       1
     6    5    6       1
     7    6    7       1
     8    6    8       1
     9    7   12       1
    10    8    9       1
    11    8   10       1
    12   10   11       1
    13   10   12       1
    14   11   45       1
    15   12   13       1
    16   13   14       1
    17   13   22       1
    18   14   15       2
    19   15   16       1
    20   16   17      ar
    21   16   22      ar
    22   17   18       1
    23   17   19      ar
    24   19   20      ar
    25   20   21      ar
    26   21   22      ar
    27   23   24       1
    28   24   25      ar
    29   24   26      ar
    30   24   27       1
    31   27   28       1
    32   28   29       1
    33   29   30       1
    34   29   31       1
    35   30   35       1
    36   31   32       1
    37   31   33       1
    38   33   34       1
    39   33   35       1
    40   35   36       1
    41   36   37      ar
    42   36   44      ar
    43   37   38      ar
    44   38   39       1
    45   38   42      ar
    46   39   40       2
    47   39   41      am
    48   42   43      ar
    49   43   44      ar
    50   45   46      ar
    51   45   47      ar
    52   45   48      ar
    53   43   72       1
    54    5   49       1
    55    5   50       1
    56    6   51       1
    57    8   52       1
    58    9   53       1
    59   10   54       1
    60   12   55       1
    61   14   56       1
    62   18   57       1
    63   18   58       1
    64   20   59       1
    65   44   73       1
    66   28   60       1
    67   28   61       1
    68   29   62       1
    69   31   63       1
    70   32   64       1
    71   33   65       1
    72   34   66       1
    73   35   67       1
    74   37   68       1
    75   41   69       1
    76   41   70       1
    77   42   71       1
@<TRIPOS>SUBSTRUCTURE
     1 NAP301      1 GROUP             4 A     NAP     0 **** NAP A 301
