@<TRIPOS>MOLECULE
4g31_0WH_1_ligand
   53    57     1     0     0
SMALL
NO_CHARGES


@<TRIPOS>ATOM
     1 C          -47.7950    12.4100     9.3600 C.ar         1 0WH1102   0.0000
     2 F          -51.5090     9.3760    -2.5890 F            1 0WH1102   0.0000
     3 N          -47.4850    11.7710    10.5920 N.ar         1 0WH1102   0.0000
     4 O          -45.9760    12.3650     0.7820 O.2          1 0WH1102   0.0000
     5 C01        -48.5860    14.6970    10.0840 C.3          1 0WH1102   0.0000
     6 F01        -51.0700    10.8910    -4.0580 F            1 0WH1102   0.0000
     7 N01        -48.2930    13.7290     9.1100 N.pl3        1 0WH1102   0.0000
     8 C02        -48.4190    13.8540     7.7540 C.2          1 0WH1102   0.0000
     9 F02        -50.6960     8.7590    -4.5210 F            1 0WH1102   0.0000
    10 N02        -48.1720    12.3320     1.4600 N.am         1 0WH1102   0.0000
    11 C03        -48.0490    12.6880     7.1650 C.2          1 0WH1102   0.0000
    12 N03        -46.9610     9.7170     7.0010 N.pl3        1 0WH1102   0.0000
    13 C04        -48.0380    12.5320     5.6890 C.ar         1 0WH1102   0.0000
    14 N04        -46.8500     9.8630     9.4500 N.ar         1 0WH1102   0.0000
    15 C05        -46.7340    12.2890     5.0010 C.ar         1 0WH1102   0.0000
    16 C06        -46.6890    12.1840     3.6700 C.ar         1 0WH1102   0.0000
    17 C07        -47.9180    12.3110     2.8980 C.ar         1 0WH1102   0.0000
    18 C08        -49.5960    12.4130     1.2240 C.3          1 0WH1102   0.0000
    19 C09        -50.2280    12.7160     2.5170 C.3          1 0WH1102   0.0000
    20 C10        -49.1770    12.6030     3.5590 C.ar         1 0WH1102   0.0000
    21 C11        -49.2340    12.7140     4.9080 C.ar         1 0WH1102   0.0000
    22 C12        -47.0990    12.4010     0.4370 C.2          1 0WH1102   0.0000
    23 C13        -47.4390    12.5330    -0.9610 C.3          1 0WH1102   0.0000
    24 C14        -47.7300    11.2120    -1.6940 C.ar         1 0WH1102   0.0000
    25 C15        -46.6920    10.1890    -1.8540 C.ar         1 0WH1102   0.0000
    26 C16        -46.9920     9.0340    -2.5220 C.ar         1 0WH1102   0.0000
    27 C17        -48.3160     8.8470    -3.0900 C.ar         1 0WH1102   0.0000
    28 C18        -49.2910     9.8340    -2.9350 C.ar         1 0WH1102   0.0000
    29 C19        -48.9790    11.0440    -2.2250 C.ar         1 0WH1102   0.0000
    30 C20        -50.6940     9.6840    -3.5230 C.3          1 0WH1102   0.0000
    31 C21        -47.6310    11.7780     8.2100 C.ar         1 0WH1102   0.0000
    32 C22        -47.1590    10.4890     8.2180 C.ar         1 0WH1102   0.0000
    33 C23        -47.0110    10.4900    10.5800 C.ar         1 0WH1102   0.0000
    34 H1         -48.9179    15.5284     9.6384 H            1 0WH1102   0.0000
    35 H2         -49.2899    14.3461    10.7016 H            1 0WH1102   0.0000
    36 H3         -47.7589    14.9059    10.6057 H            1 0WH1102   0.0000
    37 H4         -48.7332    14.6727     7.2734 H            1 0WH1102   0.0000
    38 H5         -47.1679    10.1242     6.1114 H            1 0WH1102   0.0000
    39 H6         -46.6180     8.7792     7.0540 H            1 0WH1102   0.0000
    40 H7         -45.8942    12.2049     5.5374 H            1 0WH1102   0.0000
    41 H8         -45.8181    12.0194     3.2069 H            1 0WH1102   0.0000
    42 H9         -49.9360    11.5413     0.8711 H            1 0WH1102   0.0000
    43 H10        -49.7945    13.1392     0.5658 H            1 0WH1102   0.0000
    44 H11        -50.9630    12.0631     2.7000 H            1 0WH1102   0.0000
    45 H12        -50.6012    13.6437     2.5065 H            1 0WH1102   0.0000
    46 H13        -50.1021    12.9212     5.3590 H            1 0WH1102   0.0000
    47 H14        -46.6744    12.9814    -1.4240 H            1 0WH1102   0.0000
    48 H15        -48.2534    13.1094    -1.0279 H            1 0WH1102   0.0000
    49 H16        -45.7762    10.3340    -1.4794 H            1 0WH1102   0.0000
    50 H17        -46.3003     8.3184    -2.6194 H            1 0WH1102   0.0000
    51 H18        -48.5294     8.0095    -3.5931 H            1 0WH1102   0.0000
    52 H19        -49.6708    11.7585    -2.1199 H            1 0WH1102   0.0000
    53 H20        -46.7872    10.0327    11.4407 H            1 0WH1102   0.0000
@<TRIPOS>BOND
     1    1    3      ar
     2    1    7       1
     3    1   31      ar
     4    2   30       1
     5    3   33      ar
     6    4   22       2
     7    5    7       1
     8    6   30       1
     9    7    8       1
    10    8   11       2
    11    9   30       1
    12   10   17       1
    13   10   18       1
    14   10   22      am
    15   11   13       1
    16   11   31       1
    17   12   32       1
    18   13   15      ar
    19   13   21      ar
    20   14   32      ar
    21   14   33      ar
    22   15   16      ar
    23   16   17      ar
    24   17   20      ar
    25   18   19       1
    26   19   20       1
    27   20   21      ar
    28   22   23       1
    29   23   24       1
    30   24   25      ar
    31   24   29      ar
    32   25   26      ar
    33   26   27      ar
    34   27   28      ar
    35   28   29      ar
    36   28   30       1
    37   31   32      ar
    38    5   34       1
    39    5   35       1
    40    5   36       1
    41    8   37       1
    42   12   38       1
    43   12   39       1
    44   15   40       1
    45   16   41       1
    46   18   42       1
    47   18   43       1
    48   19   44       1
    49   19   45       1
    50   21   46       1
    51   23   47       1
    52   23   48       1
    53   25   49       1
    54   26   50       1
    55   27   51       1
    56   29   52       1
    57   33   53       1
@<TRIPOS>SUBSTRUCTURE
     1 0WH1102     1 GROUP             4 A     0WH     0 **** 0WH A1102
