@<TRIPOS>MOLECULE
4lxh_C1E_1_ligand
   25    25     1     0     0
SMALL
NO_CHARGES


@<TRIPOS>ATOM
     1 OA4        -18.5150    21.7190     9.7250 O.2          1 C1E301   0.0000
     2 CA6        -18.1880    20.6260     9.2210 C.2          1 C1E301   0.0000
     3 CA5        -19.0430    19.8120     8.3660 C.2          1 C1E301   0.0000
     4 CA4        -20.3050    20.1470     8.2260 C.2          1 C1E301   0.0000
     5 CA3        -21.1990    19.3410     7.3900 C.2          1 C1E301   0.0000
     6 CLA1       -20.5640    17.9670     6.4530 Cl           1 C1E301   0.0000
     7 CA2        -22.4930    19.6690     7.3290 C.2          1 C1E301   0.0000
     8 OA3        -23.2800    18.9190     6.5780 O.3          1 C1E301   0.0000
     9 CA1        -23.0580    20.8180     8.0650 C.2          1 C1E301   0.0000
    10 OA2        -23.1090    21.9490     7.4860 O.co2        1 C1E301   0.0000
    11 OA1        -23.4710    20.6450     9.2440 O.co2        1 C1E301  -1.0000
    12 CB1        -16.8650    19.9920     9.4630 C.ar         1 C1E301   0.0000
    13 CB2        -15.7920    20.2910     8.6240 C.ar         1 C1E301   0.0000
    14 CB3        -14.5720    19.6710     8.8790 C.ar         1 C1E301   0.0000
    15 CB4        -14.4630    18.7620     9.9420 C.ar         1 C1E301   0.0000
    16 CB5        -15.5520    18.4570    10.7670 C.ar         1 C1E301   0.0000
    17 CB6        -16.7680    19.0770    10.5250 C.ar         1 C1E301   0.0000
    18 HA5        -18.6745    19.0113     7.8936 H            1 C1E301   0.0000
    19 HA4        -20.6584    20.9576     8.6930 H            1 C1E301   0.0000
    20 HA3        -22.9012    18.1383     6.0810 H            1 C1E301   0.0000
    21 HB2        -15.8957    20.9310     7.8627 H            1 C1E301   0.0000
    22 HB3        -13.7769    19.8726     8.3070 H            1 C1E301   0.0000
    23 HB4        -13.5830    18.3197    10.1152 H            1 C1E301   0.0000
    24 HB5        -15.4545    17.8035    11.5176 H            1 C1E301   0.0000
    25 HB6        -17.5633    18.8763    11.0970 H            1 C1E301   0.0000
@<TRIPOS>BOND
     1    1    2       2
     2    2    3       1
     3    2   12       1
     4    3    4       2
     5    4    5       1
     6    5    6       1
     7    5    7       2
     8    7    8       1
     9    7    9       1
    10    9   10      ar
    11    9   11      ar
    12   12   13      ar
    13   12   17      ar
    14   13   14      ar
    15   14   15      ar
    16   15   16      ar
    17   16   17      ar
    18    3   18       1
    19    4   19       1
    20    8   20       1
    21   17   25       1
    22   13   21       1
    23   14   22       1
    24   15   23       1
    25   16   24       1
@<TRIPOS>SUBSTRUCTURE
     1 C1E301      1 GROUP             4 A     C1E     0 **** C1E A 301
