@<TRIPOS>MOLECULE
3amt_ATP_1_ligand
   43    45     1     0     0
SMALL
NO_CHARGES


@<TRIPOS>ATOM
     1 PG          16.8530    91.7120    77.2820 P.3          1 ATP421   0.0000
     2 O1G         15.7460    91.2860    78.1800 O.co2        1 ATP421   0.0000
     3 O2G         17.7320    92.9070    77.9300 O.co2        1 ATP421  -1.0000
     4 O3G         17.8850    90.5080    76.9590 O.co2        1 ATP421  -1.0000
     5 PB          16.6090    91.0720    74.6620 P.3          1 ATP421   0.0000
     6 O1B         15.5260    90.0630    74.6240 O.co2        1 ATP421   0.0000
     7 O2B         18.0130    90.8750    74.2340 O.co2        1 ATP421  -1.0000
     8 O3B         16.4280    92.1970    75.8010 O.3          1 ATP421   0.0000
     9 PA          14.6350    92.4410    73.3280 P.3          1 ATP421   0.0000
    10 O1A         14.5230    93.6700    74.1530 O.co2        1 ATP421   0.0000
    11 O2A         13.7890    91.2690    73.6660 O.co2        1 ATP421  -1.0000
    12 O3A         16.1710    91.9690    73.3970 O.3          1 ATP421   0.0000
    13 O5'         14.4240    92.8290    71.7770 O.3          1 ATP421   0.0000
    14 C5'         14.4810    91.8380    70.7500 C.3          1 ATP421   0.0000
    15 C4'         13.5470    92.2280    69.6020 C.3          1 ATP421   0.0000
    16 O4'         13.7930    91.3700    68.4710 O.3          1 ATP421   0.0000
    17 C3'         12.0850    92.0080    70.0040 C.3          1 ATP421   0.0000
    18 O3'         11.2680    92.9730    69.3340 O.3          1 ATP421   0.0000
    19 C2'         11.8170    90.6230    69.4150 C.3          1 ATP421   0.0000
    20 O2'         10.4200    90.4640    69.1530 O.3          1 ATP421   0.0000
    21 C1'         12.5340    90.7970    68.0770 C.3          1 ATP421   0.0000
    22 N9          12.7570    89.4680    67.4630 N.pl3        1 ATP421   0.0000
    23 C8          13.1010    88.3640    68.1240 C.2          1 ATP421   0.0000
    24 N7          13.2340    87.3480    67.2730 N.2          1 ATP421   0.0000
    25 C5          12.9670    87.8080    66.0550 C.ar         1 ATP421   0.0000
    26 C6          12.9260    87.2220    64.7970 C.ar         1 ATP421   0.0000
    27 N6          13.2240    85.9340    64.6430 N.pl3        1 ATP421   0.0000
    28 N1          12.6020    87.9830    63.7420 N.ar         1 ATP421   0.0000
    29 C2          12.3320    89.2680    63.8920 C.ar         1 ATP421   0.0000
    30 N3          12.3620    89.8610    65.0750 N.ar         1 ATP421   0.0000
    31 C4          12.6700    89.1580    66.1730 C.ar         1 ATP421   0.0000
    32 H5'1        14.1968    90.9553    71.1241 H            1 ATP421   0.0000
    33 H5'2        15.4178    91.7686    70.4070 H            1 ATP421   0.0000
    34 H4'         13.6942    93.1839    69.3477 H            1 ATP421   0.0000
    35 H3'         11.9582    92.0283    70.9957 H            1 ATP421   0.0000
    36 H5          11.5555    93.8938    69.5976 H            1 ATP421   0.0000
    37 H2'         12.1975    89.8825    69.9689 H            1 ATP421   0.0000
    38 H7           9.9346    91.2979    69.4156 H            1 ATP421   0.0000
    39 H1'         12.0284    91.4050    67.4649 H            1 ATP421   0.0000
    40 H9          13.2390    88.3064    69.1128 H            1 ATP421   0.0000
    41 H10         13.1923    85.5187    63.7339 H            1 ATP421   0.0000
    42 H11         13.4796    85.3816    65.4364 H            1 ATP421   0.0000
    43 H12         12.0973    89.8102    63.0852 H            1 ATP421   0.0000
@<TRIPOS>BOND
     1    1    2      ar
     2    1    3      ar
     3    1    4      ar
     4    1    8       1
     5    5    6      ar
     6    5    7      ar
     7    5    8       1
     8    5   12       1
     9    9   10      ar
    10    9   11      ar
    11    9   12       1
    12    9   13       1
    13   13   14       1
    14   14   15       1
    15   15   16       1
    16   15   17       1
    17   16   21       1
    18   17   18       1
    19   17   19       1
    20   19   20       1
    21   19   21       1
    22   21   22       1
    23   22   23       1
    24   22   31       1
    25   23   24       2
    26   24   25       1
    27   25   26      ar
    28   25   31      ar
    29   26   27       1
    30   26   28      ar
    31   28   29      ar
    32   29   30      ar
    33   30   31      ar
    34   29   43       1
    35   27   42       1
    36   27   41       1
    37   23   40       1
    38   14   32       1
    39   14   33       1
    40   15   34       1
    41   17   35       1
    42   18   36       1
    43   19   37       1
    44   20   38       1
    45   21   39       1
@<TRIPOS>SUBSTRUCTURE
     1 ATP421      1 GROUP             4 A     ATP     0 **** ATP A 421
