@<TRIPOS>MOLECULE
4gsu_DWZ_2_ligand
   53    54     1     0     0
SMALL
NO_CHARGES


@<TRIPOS>ATOM
     1 CBE         -5.4820    -1.5930    -7.6370 C.3          1 DWZ501   0.0000
     2 NBC         -6.0180    -2.3050    -6.4800 N.am         1 DWZ501   0.0000
     3 CBD         -7.4020    -1.9830    -6.1390 C.3          1 DWZ501   0.0000
     4 C           -5.2850    -3.1860    -5.7850 C.2          1 DWZ501   0.0000
     5 O           -4.3690    -2.8310    -5.0510 O.2          1 DWZ501   0.0000
     6 CA          -5.6300    -4.6500    -5.9610 C.3          1 DWZ501   0.0000
     7 CB          -4.9360    -5.5450    -4.9390 C.3          1 DWZ501   0.0000
     8 N           -5.2050    -5.1570    -7.2510 N.4          1 DWZ501   1.0000
     9 CD          -4.2020    -6.2000    -7.1880 C.3          1 DWZ501   0.0000
    10 CG          -3.9800    -6.4660    -5.7000 C.3          1 DWZ501   0.0000
    11 SAK         -2.2930    -6.1550    -5.2330 S.3          1 DWZ501   0.0000
    12 CAI         -1.3690    -7.5860    -5.7150 C.3          1 DWZ501   0.0000
    13 CAH          0.0980    -7.1910    -5.8420 C.3          1 DWZ501   0.0000
    14 CAS          0.6820    -7.6380    -7.1780 C.3          1 DWZ501   0.0000
    15 CAL         -1.3320    -8.5880    -4.6030 C.2          1 DWZ501   0.0000
    16 CAM         -2.4870    -9.3040    -4.0380 C.2          1 DWZ501   0.0000
    17 OAT         -2.3620    -9.8850    -2.9270 O.co2        1 DWZ501   0.0000
    18 OAU         -3.5660    -9.3180    -4.6770 O.co2        1 DWZ501  -1.0000
    19 NAJ         -0.1730    -8.7620    -4.1460 N.2          1 DWZ501   0.0000
    20 CAD          0.7640    -7.7210    -4.5530 C.3          1 DWZ501   0.0000
    21 CAB          2.1960    -8.2910    -4.6100 C.3          1 DWZ501   0.0000
    22 CAE          2.9140    -8.1060    -3.2700 C.3          1 DWZ501   0.0000
    23 CAF          2.7890    -6.7010    -2.6730 C.3          1 DWZ501   0.0000
    24 OAG          2.4240    -9.0880    -2.3500 O.3          1 DWZ501   0.0000
    25 CAA          2.3320    -9.7820    -4.9380 C.2          1 DWZ501   0.0000
    26 OAC          1.7860   -10.3500    -5.8770 O.2          1 DWZ501   0.0000
    27 HBE1        -4.5357    -1.8758    -7.7934 H            1 DWZ501   0.0000
    28 HBE2        -6.0317    -1.8074    -8.4444 H            1 DWZ501   0.0000
    29 HBE3        -5.5116    -0.6083    -7.4655 H            1 DWZ501   0.0000
    30 HBD1        -7.6807    -2.5149    -5.3394 H            1 DWZ501   0.0000
    31 HBD2        -7.4761    -1.0073    -5.9327 H            1 DWZ501   0.0000
    32 HBD3        -7.9963    -2.2064    -6.9116 H            1 DWZ501   0.0000
    33 HA          -6.6198    -4.7643    -5.8757 H            1 DWZ501   0.0000
    34 HB1         -5.6148    -6.0902    -4.4472 H            1 DWZ501   0.0000
    35 HB2         -4.4234    -4.9849    -4.2882 H            1 DWZ501   0.0000
    36 H10         -4.8293    -4.3944    -7.7775 H            1 DWZ501   0.0000
    37 HD1         -3.3528    -5.8943    -7.6186 H            1 DWZ501   0.0000
    38 HD2         -4.5289    -7.0269    -7.6456 H            1 DWZ501   0.0000
    39 HG          -4.2082    -7.4183    -5.4975 H            1 DWZ501   0.0000
    40 HAI         -1.7197    -7.9854    -6.5620 H            1 DWZ501   0.0000
    41 HAH          0.1432    -6.1924    -5.8141 H            1 DWZ501   0.0000
    42 HAS1         1.6425    -7.3647    -7.2301 H            1 DWZ501   0.0000
    43 HAS2         0.6137    -8.6326    -7.2556 H            1 DWZ501   0.0000
    44 HAS3         0.1727    -7.2097    -7.9244 H            1 DWZ501   0.0000
    45 HAD          0.7427    -6.9938    -3.8669 H            1 DWZ501   0.0000
    46 HAB          2.7027    -7.7775    -5.3025 H            1 DWZ501   0.0000
    47 HAE          3.8861    -8.2874    -3.4187 H            1 DWZ501   0.0000
    48 HAF1         3.2822    -6.6630    -1.8039 H            1 DWZ501   0.0000
    49 HAF2         3.1791    -6.0334    -3.3072 H            1 DWZ501   0.0000
    50 HAF3         1.8240    -6.4893    -2.5181 H            1 DWZ501   0.0000
    51 HAG          1.6359    -8.7192    -1.8572 H            1 DWZ501   0.0000
    52 HAA          2.9115   -10.3347    -4.3391 H            1 DWZ501   0.0000
    53 H27         -6.0074    -5.5239    -7.7217 H            1 DWZ501   0.0000
@<TRIPOS>BOND
     1    1    2       1
     2    2    3       1
     3    2    4      am
     4    4    5       2
     5    4    6       1
     6    6    7       1
     7    6    8       1
     8    7   10       1
     9    8    9       1
    10    9   10       1
    11   10   11       1
    12   11   12       1
    13   12   13       1
    14   12   15       1
    15   13   14       1
    16   13   20       1
    17   15   16       1
    18   15   19       2
    19   16   17      ar
    20   16   18      ar
    21   19   20       1
    22   20   21       1
    23   21   22       1
    24   21   25       1
    25   22   23       1
    26   22   24       1
    27   25   26       2
    28    1   27       1
    29    1   28       1
    30    1   29       1
    31    3   30       1
    32    3   31       1
    33    3   32       1
    34    6   33       1
    35    7   34       1
    36    7   35       1
    37    8   36       1
    38    9   37       1
    39    9   38       1
    40   10   39       1
    41   12   40       1
    42   13   41       1
    43   14   42       1
    44   14   43       1
    45   14   44       1
    46    8   53       1
    47   20   45       1
    48   21   46       1
    49   22   47       1
    50   23   48       1
    51   23   49       1
    52   23   50       1
    53   24   51       1
    54   25   52       1
@<TRIPOS>SUBSTRUCTURE
     1 DWZ501      1 GROUP             4 B     DWZ     0 **** DWZ B 501
