@<TRIPOS>MOLECULE
1hov_I52_1_ligand
   82    84     1     0     0
SMALL
NO_CHARGES


@<TRIPOS>ATOM
     1 C38          0.2530    11.4660    15.7300 C.3          1 I52800   0.0000
     2 C39          1.6170    11.0660    15.2060 C.3          1 I52800   0.0000
     3 C37          0.1390    11.2710    17.2360 C.3          1 I52800   0.0000
     4 C35          0.5260    12.3170    19.4950 C.3          1 I52800   0.0000
     5 C36          0.4210    12.5580    17.9950 C.3          1 I52800   0.0000
     6 C25          9.8330    25.0320    22.4090 C.3          1 I52800   0.0000
     7 C24         10.3070    24.0420    24.6420 C.3          1 I52800   0.0000
     8 N8           7.8740    22.5440    27.6560 N.4          1 I52800   1.0000
     9 C7           8.5740    21.9930    26.4880 C.3          1 I52800   0.0000
    10 C9           6.5240    21.9610    27.9260 C.3          1 I52800   0.0000
    11 C13          7.8090    24.0390    27.6290 C.3          1 I52800   0.0000
    12 O11          5.7770    23.6350    26.2370 O.3          1 I52800   0.0000
    13 C12          6.6580    24.6500    26.7870 C.3          1 I52800   0.0000
    14 C10          5.3330    22.6630    27.2170 C.3          1 I52800   0.0000
    15 C31          0.7960    14.2400    21.1560 C.ar         1 I52800   0.0000
    16 C23          9.2920    24.1120    23.5050 C.3          1 I52800   0.0000
    17 O26          6.6080    23.3040    22.2880 O.2          1 I52800   0.0000
    18 C4           8.9130    22.7040    22.9240 C.3          1 I52800   0.0000
    19 C6           7.8610    21.9330    25.1260 C.3          1 I52800   0.0000
    20 S14          9.5340    20.1270    23.8350 S.o2         1 I52800   0.0000
    21 N5           8.7580    21.6340    23.9700 N.3          1 I52800   0.0000
    22 C3           7.6970    22.8160    21.9890 C.2          1 I52800   0.0000
    23 O1           6.8320    22.3820    19.8350 O.3          1 I52800  -1.0000
    24 N2           7.9280    22.2990    20.7260 N.am         1 I52800   0.0000
    25 O21         10.5950    20.2590    22.8520 O.2          1 I52800   0.0000
    26 O41          3.3940    16.9390    23.1460 O.2          1 I52800   0.0000
    27 C28          3.8830    16.2900    22.2300 C.2          1 I52800   0.0000
    28 N27          5.1970    16.3730    21.7600 N.am         1 I52800   0.0000
    29 C29          3.0090    15.3080    21.5290 C.ar         1 I52800   0.0000
    30 C33          2.7830    13.4530    19.8890 C.ar         1 I52800   0.0000
    31 C34          3.5960    14.4280    20.5580 C.ar         1 I52800   0.0000
    32 C30          1.6050    15.2150    21.8260 C.ar         1 I52800   0.0000
    33 C32          1.3770    13.3510    20.1840 C.ar         1 I52800   0.0000
    34 C16          7.0050    18.9840    23.8380 C.ar         1 I52800   0.0000
    35 C18          6.2590    17.2090    22.2290 C.ar         1 I52800   0.0000
    36 C15          8.3050    18.9910    23.2370 C.ar         1 I52800   0.0000
    37 O22          9.8600    19.6840    25.1690 O.2          1 I52800   0.0000
    38 C20          8.5920    18.1140    22.1410 C.ar         1 I52800   0.0000
    39 C17          5.9920    18.1020    23.3410 C.ar         1 I52800   0.0000
    40 C19          7.5710    17.2270    21.6410 C.ar         1 I52800   0.0000
    41 H1          -0.4426    10.9069    15.2788 H            1 I52800   0.0000
    42 H2           0.0956    12.4302    15.5167 H            1 I52800   0.0000
    43 H3           1.6492    11.2092    14.2168 H            1 I52800   0.0000
    44 H4           2.3201    11.6241    15.6466 H            1 I52800   0.0000
    45 H5           1.7820    10.1008    15.4087 H            1 I52800   0.0000
    46 H6           0.7973    10.5751    17.5230 H            1 I52800   0.0000
    47 H7          -0.7874    10.9634    17.4533 H            1 I52800   0.0000
    48 H8           0.9297    11.4150    19.6479 H            1 I52800   0.0000
    49 H9          -0.3926    12.3423    19.8895 H            1 I52800   0.0000
    50 H10         -0.3214    13.2053    17.8221 H            1 I52800   0.0000
    51 H11          1.2833    12.9446    17.6679 H            1 I52800   0.0000
    52 H12          9.1723    25.0825    21.6600 H            1 I52800   0.0000
    53 H13          9.9815    25.9467    22.7848 H            1 I52800   0.0000
    54 H14         10.6989    24.6681    22.0657 H            1 I52800   0.0000
    55 H15          9.9596    23.4418    25.3625 H            1 I52800   0.0000
    56 H16         11.1720    23.6798    24.2948 H            1 I52800   0.0000
    57 H17         10.4546    24.9584    25.0139 H            1 I52800   0.0000
    58 H18          8.8320    21.0554    26.7211 H            1 I52800   0.0000
    59 H19          9.3988    22.5434    26.3588 H            1 I52800   0.0000
    60 H20          6.3627    22.0032    28.9120 H            1 I52800   0.0000
    61 H21          6.5373    21.0056    27.6310 H            1 I52800   0.0000
    62 H22          8.6737    24.3770    27.2575 H            1 I52800   0.0000
    63 H23          7.7032    24.3585    28.5707 H            1 I52800   0.0000
    64 H24          7.0544    25.1741    26.0333 H            1 I52800   0.0000
    65 H25          6.1213    25.2593    27.3707 H            1 I52800   0.0000
    66 H26          4.7778    23.1298    27.9054 H            1 I52800   0.0000
    67 H27          4.7788    21.9702    26.7557 H            1 I52800   0.0000
    68 H28         -0.1798    14.1767    21.3653 H            1 I52800   0.0000
    69 H29          8.4573    24.5271    23.8668 H            1 I52800   0.0000
    70 H30          9.6818    22.4232    22.3494 H            1 I52800   0.0000
    71 H31          7.4251    22.8180    24.9624 H            1 I52800   0.0000
    72 H32          7.1612    21.2200    25.1709 H            1 I52800   0.0000
    73 H33          8.8047    21.8965    20.4627 H            1 I52800   0.0000
    74 H34          5.4243    15.7690    20.9961 H            1 I52800   0.0000
    75 H35          3.1950    12.8409    19.2141 H            1 I52800   0.0000
    76 H36          4.5714    14.4946    20.3480 H            1 I52800   0.0000
    77 H37          1.1938    15.8297    22.4990 H            1 I52800   0.0000
    78 H38          6.8048    19.5946    24.6042 H            1 I52800   0.0000
    79 H39          9.5003    18.1170    21.7228 H            1 I52800   0.0000
    80 H40          5.0871    18.1016    23.7667 H            1 I52800   0.0000
    81 H41          7.7779    16.6170    20.8761 H            1 I52800   0.0000
    82 H42          8.4370    22.3089    28.4483 H            1 I52800   0.0000
@<TRIPOS>BOND
     1    1    2       1
     2    1    3       1
     3    3    5       1
     4    4    5       1
     5    4   33       1
     6    6   16       1
     7    7   16       1
     8    8    9       1
     9    8   10       1
    10    8   11       1
    11    9   19       1
    12   10   14       1
    13   11   13       1
    14   12   13       1
    15   12   14       1
    16   15   32      ar
    17   15   33      ar
    18   16   18       1
    19   17   22       2
    20   18   21       1
    21   18   22       1
    22   19   21       1
    23   20   21       1
    24   20   25       2
    25   20   36       1
    26   20   37       2
    27   22   24      am
    28   23   24       1
    29   26   27       2
    30   27   28      am
    31   27   29       1
    32   28   35       1
    33   29   31      ar
    34   29   32      ar
    35   30   31      ar
    36   30   33      ar
    37   34   36      ar
    38   34   39      ar
    39   35   39      ar
    40   35   40      ar
    41   36   38      ar
    42   38   40      ar
    43    1   41       1
    44    1   42       1
    45    2   43       1
    46    2   44       1
    47    2   45       1
    48    3   46       1
    49    3   47       1
    50    4   48       1
    51    4   49       1
    52    5   50       1
    53    5   51       1
    54    6   52       1
    55    6   53       1
    56    6   54       1
    57    7   55       1
    58    7   56       1
    59    7   57       1
    60    9   58       1
    61    9   59       1
    62   10   60       1
    63   10   61       1
    64   11   62       1
    65   11   63       1
    66   13   64       1
    67   13   65       1
    68   14   66       1
    69   14   67       1
    70   15   68       1
    71   16   69       1
    72   18   70       1
    73   19   71       1
    74   19   72       1
    75    8   82       1
    76   24   73       1
    77   28   74       1
    78   30   75       1
    79   31   76       1
    80   32   77       1
    81   34   78       1
    82   38   79       1
    83   39   80       1
    84   40   81       1
@<TRIPOS>SUBSTRUCTURE
     1 I52800      1 GROUP             4 A     I52     0 **** I52 A 800
