@<TRIPOS>MOLECULE
3rp8_FAD_1_ligand
   84    89     1     0     0
SMALL
NO_CHARGES


@<TRIPOS>ATOM
     1 PA           6.7800    24.9630     2.2860 P.3          1 FAD385   0.0000
     2 O1A          7.8140    24.9680     1.2090 O.co2        1 FAD385   0.0000
     3 O2A          6.4940    26.3190     2.8450 O.co2        1 FAD385  -1.0000
     4 O5B          7.0890    23.9690     3.5140 O.3          1 FAD385   0.0000
     5 C5B          7.6280    22.6860     3.3430 C.3          1 FAD385   0.0000
     6 C4B          8.5020    22.4350     4.5620 C.3          1 FAD385   0.0000
     7 O4B          9.0660    21.1460     4.4610 O.3          1 FAD385   0.0000
     8 C3B          9.6650    23.4230     4.5860 C.3          1 FAD385   0.0000
     9 O3B          9.7400    24.0180     5.8630 O.3          1 FAD385   0.0000
    10 C2B         10.8960    22.5760     4.3010 C.3          1 FAD385   0.0000
    11 O2B         11.9860    23.0000     5.0810 O.3          1 FAD385   0.0000
    12 C1B         10.4470    21.2050     4.7530 C.3          1 FAD385   0.0000
    13 N9A         11.0660    20.1050     4.0080 N.pl3        1 FAD385   0.0000
    14 C8A         11.4280    20.0540     2.6850 C.2          1 FAD385   0.0000
    15 N7A         11.9120    18.8130     2.4440 N.2          1 FAD385   0.0000
    16 C5A         11.8490    18.0860     3.5810 C.ar         1 FAD385   0.0000
    17 C6A         12.2070    16.7780     3.9010 C.ar         1 FAD385   0.0000
    18 N6A         12.7780    15.9500     3.0060 N.pl3        1 FAD385   0.0000
    19 N1A         11.9960    16.3490     5.1890 N.ar         1 FAD385   0.0000
    20 C2A         11.4590    17.1710     6.1490 C.ar         1 FAD385   0.0000
    21 N3A         11.1110    18.4620     5.8270 N.ar         1 FAD385   0.0000
    22 C4A         11.3140    18.8990     4.5660 C.ar         1 FAD385   0.0000
    23 N1           0.2650    31.8620    -1.5080 N.2          1 FAD385   0.0000
    24 C2          -0.8780    32.5570    -1.1830 C.2          1 FAD385   0.0000
    25 O2          -1.8330    31.9520    -0.6770 O.2          1 FAD385   0.0000
    26 N3          -0.9680    33.9150    -1.4440 N.pl3        1 FAD385   0.0000
    27 C4           0.1050    34.5750    -2.0150 C.2          1 FAD385   0.0000
    28 O4           0.0460    35.7800    -2.2470 O.2          1 FAD385   0.0000
    29 C4X          1.2540    33.8720    -2.3290 C.2          1 FAD385   0.0000
    30 N5           2.3050    34.5280    -2.9120 N.2          1 FAD385   0.0000
    31 C5X          3.4480    33.8390    -3.2290 C.ar         1 FAD385   0.0000
    32 C6           4.5150    34.5250    -3.8060 C.ar         1 FAD385   0.0000
    33 C7           5.6690    33.8190    -4.1270 C.ar         1 FAD385   0.0000
    34 C7M          6.8340    34.5260    -4.7570 C.3          1 FAD385   0.0000
    35 C8           5.7510    32.4500    -3.8740 C.ar         1 FAD385   0.0000
    36 C8M          7.0050    31.6990    -4.2210 C.3          1 FAD385   0.0000
    37 C9           4.6910    31.7730    -3.2840 C.ar         1 FAD385   0.0000
    38 C9A          3.5360    32.4680    -2.9620 C.ar         1 FAD385   0.0000
    39 N10          2.4780    31.8040    -2.3810 N.pl3        1 FAD385   0.0000
    40 C10          1.3320    32.5050    -2.0780 C.2          1 FAD385   0.0000
    41 C1'          2.5550    30.3170    -2.1410 C.3          1 FAD385   0.0000
    42 C2'          2.9010    29.9030    -0.7140 C.3          1 FAD385   0.0000
    43 O2'          4.0850    30.5460    -0.3110 O.3          1 FAD385   0.0000
    44 C3'          3.1320    28.3950    -0.7040 C.3          1 FAD385   0.0000
    45 O3'          2.1740    27.7330    -1.5260 O.3          1 FAD385   0.0000
    46 C4'          3.0240    27.8240     0.7050 C.3          1 FAD385   0.0000
    47 O4'          3.9730    28.4180     1.5580 O.3          1 FAD385   0.0000
    48 C5'          3.2990    26.3370     0.6450 C.3          1 FAD385   0.0000
    49 O5'          3.3900    25.8420     1.9640 O.3          1 FAD385   0.0000
    50 P            3.9820    24.3770     2.2090 P.3          1 FAD385   0.0000
    51 O1P          3.1960    23.3860     1.3980 O.co2        1 FAD385   0.0000
    52 O2P          3.9630    24.0590     3.6850 O.co2        1 FAD385  -1.0000
    53 O3P          5.4680    24.3330     1.5950 O.3          1 FAD385   0.0000
    54 H5B1         8.1767    22.6477     2.5078 H            1 FAD385   0.0000
    55 H5B2         6.8970    22.0055     3.2931 H            1 FAD385   0.0000
    56 H4B          7.9615    22.5135     5.3997 H            1 FAD385   0.0000
    57 H3B          9.5476    24.1210     3.8796 H            1 FAD385   0.0000
    58 H5           9.8869    23.3092     6.5529 H            1 FAD385   0.0000
    59 H2B         11.1227    22.5811     3.3270 H            1 FAD385   0.0000
    60 H7          11.9898    22.5011     5.9476 H            1 FAD385   0.0000
    61 H1B         10.6016    21.0927     5.7346 H            1 FAD385   0.0000
    62 H8A         11.3487    20.7974     2.0209 H            1 FAD385   0.0000
    63 H6A1        13.0214    15.0173     3.2720 H            1 FAD385   0.0000
    64 H6A2        12.9587    16.2677     2.0752 H            1 FAD385   0.0000
    65 H2A         11.3214    16.8319     7.0796 H            1 FAD385   0.0000
    66 H13         -1.8046    34.4153    -1.2206 H            1 FAD385   0.0000
    67 H14          4.4519    35.5067    -3.9858 H            1 FAD385   0.0000
    68 H7M1         7.5729    33.8719    -4.9190 H            1 FAD385   0.0000
    69 H7M2         6.5488    34.9288    -5.6267 H            1 FAD385   0.0000
    70 H7M3         7.1563    35.2481    -4.1449 H            1 FAD385   0.0000
    71 H8M1         6.8953    30.7358    -3.9757 H            1 FAD385   0.0000
    72 H8M2         7.1783    31.7753    -5.2029 H            1 FAD385   0.0000
    73 H8M3         7.7760    32.0860    -3.7153 H            1 FAD385   0.0000
    74 H21          4.7607    30.7938    -3.0935 H            1 FAD385   0.0000
    75 H1'1         3.2543    29.9418    -2.7495 H            1 FAD385   0.0000
    76 H1'2         1.6660    29.9208    -2.3705 H            1 FAD385   0.0000
    77 H2'          2.1522    30.1408    -0.0953 H            1 FAD385   0.0000
    78 H25          3.8599    31.4214     0.1169 H            1 FAD385   0.0000
    79 H3'          4.0475    28.2064    -1.0594 H            1 FAD385   0.0000
    80 H27          2.5783    26.9005    -1.9048 H            1 FAD385   0.0000
    81 H4'          2.1037    27.9822     1.0629 H            1 FAD385   0.0000
    82 H29          4.1571    29.3523     1.2526 H            1 FAD385   0.0000
    83 H5'1         4.1599    26.1728     0.1634 H            1 FAD385   0.0000
    84 H5'2         2.5541    25.8759     0.1628 H            1 FAD385   0.0000
@<TRIPOS>BOND
     1    1    2      ar
     2    1    3      ar
     3    1    4       1
     4    1   53       1
     5    4    5       1
     6    5    6       1
     7    6    7       1
     8    6    8       1
     9    7   12       1
    10    8    9       1
    11    8   10       1
    12   10   11       1
    13   10   12       1
    14   12   13       1
    15   13   14       1
    16   13   22       1
    17   14   15       2
    18   15   16       1
    19   16   17      ar
    20   16   22      ar
    21   17   18       1
    22   17   19      ar
    23   19   20      ar
    24   20   21      ar
    25   21   22      ar
    26   23   24       1
    27   23   40       2
    28   24   25       2
    29   24   26       1
    30   26   27       1
    31   27   28       2
    32   27   29       1
    33   29   30       2
    34   29   40       1
    35   30   31       1
    36   31   32      ar
    37   31   38      ar
    38   32   33      ar
    39   33   34       1
    40   33   35      ar
    41   35   36       1
    42   35   37      ar
    43   37   38      ar
    44   38   39       1
    45   39   40       1
    46   39   41       1
    47   41   42       1
    48   42   43       1
    49   42   44       1
    50   44   45       1
    51   44   46       1
    52   46   47       1
    53   46   48       1
    54   48   49       1
    55   49   50       1
    56   50   51      ar
    57   50   52      ar
    58   50   53       1
    59   48   84       1
    60    5   54       1
    61    5   55       1
    62    6   56       1
    63    8   57       1
    64    9   58       1
    65   10   59       1
    66   11   60       1
    67   12   61       1
    68   14   62       1
    69   18   63       1
    70   18   64       1
    71   20   65       1
    72   26   66       1
    73   32   67       1
    74   34   68       1
    75   34   69       1
    76   34   70       1
    77   36   71       1
    78   36   72       1
    79   36   73       1
    80   37   74       1
    81   41   75       1
    82   41   76       1
    83   42   77       1
    84   43   78       1
    85   44   79       1
    86   45   80       1
    87   46   81       1
    88   47   82       1
    89   48   83       1
@<TRIPOS>SUBSTRUCTURE
     1 FAD385      1 GROUP             4 A     FAD     0 **** FAD A 385
