@<TRIPOS>MOLECULE
4gi5_FAD_1_ligand
   84    89     1     0     0
SMALL
NO_CHARGES


@<TRIPOS>ATOM
     1 PA          87.6910    37.4500    76.6590 P.3          1 FAD301   0.0000
     2 O1A         87.1440    37.5220    78.0000 O.co2        1 FAD301   0.0000
     3 O2A         89.0760    36.9440    76.4000 O.co2        1 FAD301  -1.0000
     4 O5B         87.4970    38.9070    76.0140 O.3          1 FAD301   0.0000
     5 C5B         87.7410    39.1210    74.6350 C.3          1 FAD301   0.0000
     6 C4B         87.8020    40.5770    74.3470 C.3          1 FAD301   0.0000
     7 O4B         86.5140    41.1400    74.5290 O.3          1 FAD301   0.0000
     8 C3B         88.7820    41.2450    75.3120 C.3          1 FAD301   0.0000
     9 O3B         89.5320    42.0830    74.4180 O.3          1 FAD301   0.0000
    10 C2B         87.8410    42.0380    76.1700 C.3          1 FAD301   0.0000
    11 O2B         88.4760    43.2060    76.7130 O.3          1 FAD301   0.0000
    12 C1B         86.6710    42.3490    75.2730 C.3          1 FAD301   0.0000
    13 N9A         85.4800    42.6600    76.1140 N.pl3        1 FAD301   0.0000
    14 C8A         84.9720    42.0520    77.2940 C.2          1 FAD301   0.0000
    15 N7A         83.8740    42.6500    77.7540 N.2          1 FAD301   0.0000
    16 C5A         83.7730    43.6580    76.9100 C.ar         1 FAD301   0.0000
    17 C6A         82.8270    44.7830    76.9640 C.ar         1 FAD301   0.0000
    18 N6A         81.9630    44.6690    78.0180 N.pl3        1 FAD301   0.0000
    19 N1A         82.8640    45.7470    76.0080 N.ar         1 FAD301   0.0000
    20 C2A         83.8100    45.7120    75.1160 C.ar         1 FAD301   0.0000
    21 N3A         84.6840    44.6290    75.0540 N.ar         1 FAD301   0.0000
    22 C4A         84.6610    43.6330    75.8620 C.ar         1 FAD301   0.0000
    23 N1          88.4490    30.4500    68.1750 N.2          1 FAD301   0.0000
    24 C2          88.0590    29.8740    67.0510 C.2          1 FAD301   0.0000
    25 O2          87.5450    30.5560    66.1490 O.2          1 FAD301   0.0000
    26 N3          88.0380    28.5190    66.9010 N.pl3        1 FAD301   0.0000
    27 C4          88.6940    27.7400    67.7900 C.2          1 FAD301   0.0000
    28 O4          88.7050    26.4930    67.6300 O.2          1 FAD301   0.0000
    29 C4X         89.2000    28.2820    68.9880 C.2          1 FAD301   0.0000
    30 N5          89.8980    27.4690    69.8870 N.2          1 FAD301   0.0000
    31 C5X         90.2350    28.0370    71.1370 C.ar         1 FAD301   0.0000
    32 C6          90.7400    27.1940    72.1570 C.ar         1 FAD301   0.0000
    33 C7          91.1150    27.7680    73.3750 C.ar         1 FAD301   0.0000
    34 C7M         91.5800    26.8630    74.4620 C.3          1 FAD301   0.0000
    35 C8          90.9940    29.1900    73.5560 C.ar         1 FAD301   0.0000
    36 C8M         91.3210    29.8330    74.8980 C.3          1 FAD301   0.0000
    37 C9          90.4780    30.0350    72.5860 C.ar         1 FAD301   0.0000
    38 C9A         90.1070    29.4480    71.3460 C.ar         1 FAD301   0.0000
    39 N10         89.5170    30.2550    70.3320 N.pl3        1 FAD301   0.0000
    40 C10         89.0640    29.7090    69.1290 C.2          1 FAD301   0.0000
    41 C1'         89.2160    31.6490    70.5730 C.3          1 FAD301   0.0000
    42 C2'         87.9850    31.7470    71.4770 C.3          1 FAD301   0.0000
    43 O2'         86.7630    31.3210    70.8350 O.3          1 FAD301   0.0000
    44 C3'         87.8560    33.2190    71.9130 C.3          1 FAD301   0.0000
    45 O3'         88.9900    33.4420    72.7750 O.3          1 FAD301   0.0000
    46 C4'         86.5960    33.4450    72.7830 C.3          1 FAD301   0.0000
    47 O4'         85.4370    33.3540    71.9370 O.3          1 FAD301   0.0000
    48 C5'         86.6150    34.8450    73.4550 C.3          1 FAD301   0.0000
    49 O5'         85.5330    34.9450    74.3770 O.3          1 FAD301   0.0000
    50 P           85.9510    35.2020    75.9370 P.3          1 FAD301   0.0000
    51 O1P         84.6310    35.3700    76.7130 O.co2        1 FAD301   0.0000
    52 O2P         86.9300    34.2300    76.4350 O.co2        1 FAD301  -1.0000
    53 O3P         86.6620    36.6140    75.6680 O.3          1 FAD301   0.0000
    54 H5B1        87.0030    38.7089    74.1007 H            1 FAD301   0.0000
    55 H5B2        88.6112    38.6974    74.3835 H            1 FAD301   0.0000
    56 H4B         88.1039    40.7224    73.4048 H            1 FAD301   0.0000
    57 H3B         89.3458    40.5978    75.8250 H            1 FAD301   0.0000
    58 H5          89.9802    41.5160    73.7269 H            1 FAD301   0.0000
    59 H2B         87.5263    41.4610    76.9237 H            1 FAD301   0.0000
    60 H7          88.3543    43.9742    76.0845 H            1 FAD301   0.0000
    61 H1B         86.8845    43.1137    74.6650 H            1 FAD301   0.0000
    62 H8A         85.3943    41.2588    77.7328 H            1 FAD301   0.0000
    63 H6A1        81.2658    45.3694    78.1711 H            1 FAD301   0.0000
    64 H6A2        82.0284    43.8853    78.6356 H            1 FAD301   0.0000
    65 H2A         83.9107    46.4684    74.4697 H            1 FAD301   0.0000
    66 H13         87.5409    28.1044    66.1388 H            1 FAD301   0.0000
    67 H14         90.8264    26.2088    72.0088 H            1 FAD301   0.0000
    68 H7M1        91.8138    27.4046    75.2695 H            1 FAD301   0.0000
    69 H7M2        90.8518    26.2177    74.6929 H            1 FAD301   0.0000
    70 H7M3        92.3867    26.3589    74.1537 H            1 FAD301   0.0000
    71 H8M1        91.1804    30.8212    74.8372 H            1 FAD301   0.0000
    72 H8M2        90.7226    29.4540    75.6039 H            1 FAD301   0.0000
    73 H8M3        92.2746    29.6459    75.1337 H            1 FAD301   0.0000
    74 H21         90.3714    31.0154    72.7515 H            1 FAD301   0.0000
    75 H1'1        89.0301    32.1065    69.7035 H            1 FAD301   0.0000
    76 H1'2        89.9956    32.0874    71.0203 H            1 FAD301   0.0000
    77 H2'         88.1359    31.1828    72.2887 H            1 FAD301   0.0000
    78 H25         86.6309    30.3414    70.9864 H            1 FAD301   0.0000
    79 H3'         87.8703    33.8350    71.1253 H            1 FAD301   0.0000
    80 H27         89.2718    34.3995    72.7141 H            1 FAD301   0.0000
    81 H4'         86.5485    32.7382    73.4889 H            1 FAD301   0.0000
    82 H29         85.6245    32.7268    71.1810 H            1 FAD301   0.0000
    83 H5'1        86.5220    35.5523    72.7542 H            1 FAD301   0.0000
    84 H5'2        87.4798    34.9694    73.9414 H            1 FAD301   0.0000
@<TRIPOS>BOND
     1    1    2      ar
     2    1    3      ar
     3    1    4       1
     4    1   53       1
     5    4    5       1
     6    5    6       1
     7    6    7       1
     8    6    8       1
     9    7   12       1
    10    8    9       1
    11    8   10       1
    12   10   11       1
    13   10   12       1
    14   12   13       1
    15   13   14       1
    16   13   22       1
    17   14   15       2
    18   15   16       1
    19   16   17      ar
    20   16   22      ar
    21   17   18       1
    22   17   19      ar
    23   19   20      ar
    24   20   21      ar
    25   21   22      ar
    26   23   24       1
    27   23   40       2
    28   24   25       2
    29   24   26       1
    30   26   27       1
    31   27   28       2
    32   27   29       1
    33   29   30       2
    34   29   40       1
    35   30   31       1
    36   31   32      ar
    37   31   38      ar
    38   32   33      ar
    39   33   34       1
    40   33   35      ar
    41   35   36       1
    42   35   37      ar
    43   37   38      ar
    44   38   39       1
    45   39   40       1
    46   39   41       1
    47   41   42       1
    48   42   43       1
    49   42   44       1
    50   44   45       1
    51   44   46       1
    52   46   47       1
    53   46   48       1
    54   48   49       1
    55   49   50       1
    56   50   51      ar
    57   50   52      ar
    58   50   53       1
    59   48   84       1
    60    5   54       1
    61    5   55       1
    62    6   56       1
    63    8   57       1
    64    9   58       1
    65   10   59       1
    66   11   60       1
    67   12   61       1
    68   14   62       1
    69   18   63       1
    70   18   64       1
    71   20   65       1
    72   26   66       1
    73   32   67       1
    74   34   68       1
    75   34   69       1
    76   34   70       1
    77   36   71       1
    78   36   72       1
    79   36   73       1
    80   37   74       1
    81   41   75       1
    82   41   76       1
    83   42   77       1
    84   43   78       1
    85   44   79       1
    86   45   80       1
    87   46   81       1
    88   47   82       1
    89   48   83       1
@<TRIPOS>SUBSTRUCTURE
     1 FAD301      1 GROUP             4 A     FAD     0 **** FAD A 301
