@<TRIPOS>MOLECULE
1ht0_NAD_1_ligand
   70    74     1     0     0
SMALL
NO_CHARGES


@<TRIPOS>ATOM
     1 PA          22.4860    -4.5250     1.8390 P.3          1 NAD1377   0.0000
     2 O1A         22.4590    -5.9210     1.4910 O.co2        1 NAD1377   0.0000
     3 O2A         23.1840    -3.6680     0.8130 O.co2        1 NAD1377  -1.0000
     4 O5B         23.1230    -4.3270     3.2680 O.3          1 NAD1377   0.0000
     5 C5B         22.9940    -5.3710     4.2710 C.3          1 NAD1377   0.0000
     6 C4B         24.2930    -5.2030     5.0520 C.3          1 NAD1377   0.0000
     7 O4B         24.2030    -6.0740     6.1760 O.3          1 NAD1377   0.0000
     8 C3B         25.5430    -5.6140     4.1870 C.3          1 NAD1377   0.0000
     9 O3B         26.6320    -4.7310     4.4960 O.3          1 NAD1377   0.0000
    10 C2B         25.7890    -7.0140     4.7980 C.3          1 NAD1377   0.0000
    11 O2B         27.1790    -7.3560     4.7450 O.3          1 NAD1377   0.0000
    12 C1B         25.3740    -6.8320     6.2850 C.3          1 NAD1377   0.0000
    13 N9A         25.0060    -8.0840     6.9110 N.pl3        1 NAD1377   0.0000
    14 C8A         24.2540    -9.1290     6.3800 C.2          1 NAD1377   0.0000
    15 N7A         24.0580   -10.1490     7.2830 N.2          1 NAD1377   0.0000
    16 C5A         24.7080    -9.7290     8.4060 C.ar         1 NAD1377   0.0000
    17 C6A         24.8340   -10.3660     9.6270 C.ar         1 NAD1377   0.0000
    18 N6A         24.2850   -11.5730     9.9140 N.pl3        1 NAD1377   0.0000
    19 N1A         25.5670    -9.6950    10.5850 N.ar         1 NAD1377   0.0000
    20 C2A         26.1280    -8.4550    10.3480 C.ar         1 NAD1377   0.0000
    21 N3A         26.0030    -7.8090     9.1240 N.ar         1 NAD1377   0.0000
    22 C4A         25.2680    -8.5040     8.1940 C.ar         1 NAD1377   0.0000
    23 O3          20.9620    -3.9460     2.0090 O.3          1 NAD1377   0.0000
    24 PN          20.3360    -2.5070     1.9440 P.3          1 NAD1377   0.0000
    25 O1N         19.9060    -2.1860     0.5480 O.co2        1 NAD1377   0.0000
    26 O2N         21.1180    -1.4250     2.5350 O.co2        1 NAD1377  -1.0000
    27 O5D         18.9340    -2.6690     2.7760 O.3          1 NAD1377   0.0000
    28 C5D         19.0310    -3.1220     4.1920 C.3          1 NAD1377   0.0000
    29 C4D         17.6970    -3.6200     4.7790 C.3          1 NAD1377   0.0000
    30 O4D         16.7630    -2.5320     4.8010 O.3          1 NAD1377   0.0000
    31 C3D         17.1000    -4.7090     3.8780 C.3          1 NAD1377   0.0000
    32 O3D         16.4040    -5.6700     4.6760 O.3          1 NAD1377   0.0000
    33 C2D         16.0970    -3.9400     3.0210 C.3          1 NAD1377   0.0000
    34 O2D         15.0700    -4.8410     2.5900 O.3          1 NAD1377   0.0000
    35 C1D         15.5530    -2.9880     4.1030 C.3          1 NAD1377   0.0000
    36 N1N         14.8920    -1.7940     3.6140 N.ar         1 NAD1377   1.0000
    37 C2N         13.8380    -1.3590     4.3230 C.ar         1 NAD1377   0.0000
    38 C3N         13.2350    -0.2120     4.0480 C.ar         1 NAD1377   0.0000
    39 C7N         12.1850     0.2550     4.8240 C.2          1 NAD1377   0.0000
    40 O7N         11.3670     1.0520     4.3270 O.2          1 NAD1377   0.0000
    41 N7N         12.0560    -0.0320     6.1360 N.am         1 NAD1377   0.0000
    42 C4N         13.6700     0.5250     3.0070 C.ar         1 NAD1377   0.0000
    43 C5N         14.7220     0.1130     2.2500 C.ar         1 NAD1377   0.0000
    44 C6N         15.3370    -1.0830     2.5820 C.ar         1 NAD1377   0.0000
    45 H5B1        22.9348    -6.2764     3.8506 H            1 NAD1377   0.0000
    46 H5B2        22.1953    -5.2212     4.8537 H            1 NAD1377   0.0000
    47 H4B         24.3867    -4.2562     5.3599 H            1 NAD1377   0.0000
    48 H3B         25.3406    -5.6498     3.2084 H            1 NAD1377   0.0000
    49 H5          26.8546    -4.8038     5.4682 H            1 NAD1377   0.0000
    50 H2B         25.2279    -7.7089     4.3481 H            1 NAD1377   0.0000
    51 H7          27.6313    -7.0431     5.5801 H            1 NAD1377   0.0000
    52 H1B         26.0775    -6.3508     6.8080 H            1 NAD1377   0.0000
    53 H8A         23.8962    -9.1373     5.4463 H            1 NAD1377   0.0000
    54 H6A1        24.4146   -11.9788    10.8187 H            1 NAD1377   0.0000
    55 H6A2        23.7508   -12.0568     9.2208 H            1 NAD1377   0.0000
    56 H2A         26.6406    -8.0078    11.0810 H            1 NAD1377   0.0000
    57 H5D1        19.3526    -2.3548     4.7470 H            1 NAD1377   0.0000
    58 H5D2        19.6944    -3.8688     4.2392 H            1 NAD1377   0.0000
    59 H4D         17.8369    -3.9744     5.7036 H            1 NAD1377   0.0000
    60 H3D         17.8035    -5.1430     3.3152 H            1 NAD1377   0.0000
    61 H17         17.0403    -6.0889     5.3238 H            1 NAD1377   0.0000
    62 H2D         16.5296    -3.4548     2.2611 H            1 NAD1377   0.0000
    63 H19         14.7154    -4.5429     1.7038 H            1 NAD1377   0.0000
    64 H1D         14.9545    -3.4834     4.7326 H            1 NAD1377   0.0000
    65 H2N         13.4985    -1.9168     5.0803 H            1 NAD1377   0.0000
    66 H7N1        11.2799     0.3292     6.6529 H            1 NAD1377   0.0000
    67 H7N2        12.7365    -0.6059     6.5915 H            1 NAD1377   0.0000
    68 H4N         13.2128     1.3870     2.7881 H            1 NAD1377   0.0000
    69 H5N         15.0426     0.6582     1.4754 H            1 NAD1377   0.0000
    70 H6N         16.1148    -1.4114     2.0462 H            1 NAD1377   0.0000
@<TRIPOS>BOND
     1    1    2      ar
     2    1    3      ar
     3    1    4       1
     4    1   23       1
     5    4    5       1
     6    5    6       1
     7    6    7       1
     8    6    8       1
     9    7   12       1
    10    8    9       1
    11    8   10       1
    12   10   11       1
    13   10   12       1
    14   12   13       1
    15   13   14       1
    16   13   22       1
    17   14   15       2
    18   15   16       1
    19   16   17      ar
    20   16   22      ar
    21   17   18       1
    22   17   19      ar
    23   19   20      ar
    24   20   21      ar
    25   21   22      ar
    26   23   24       1
    27   24   25      ar
    28   24   26      ar
    29   24   27       1
    30   27   28       1
    31   28   29       1
    32   29   30       1
    33   29   31       1
    34   30   35       1
    35   31   32       1
    36   31   33       1
    37   33   34       1
    38   33   35       1
    39   35   36       1
    40   36   37      ar
    41   36   44      ar
    42   37   38      ar
    43   38   39       1
    44   38   42      ar
    45   39   40       2
    46   39   41      am
    47   42   43      ar
    48   43   44      ar
    49   44   70       1
    50    5   45       1
    51    5   46       1
    52    6   47       1
    53    8   48       1
    54    9   49       1
    55   10   50       1
    56   11   51       1
    57   12   52       1
    58   14   53       1
    59   18   54       1
    60   18   55       1
    61   20   56       1
    62   43   69       1
    63   28   57       1
    64   28   58       1
    65   29   59       1
    66   31   60       1
    67   32   61       1
    68   33   62       1
    69   34   63       1
    70   35   64       1
    71   37   65       1
    72   41   66       1
    73   41   67       1
    74   42   68       1
@<TRIPOS>SUBSTRUCTURE
     1 NAD1377     1 GROUP             4 A     NAD     0 **** NAD A1377
