@<TRIPOS>MOLECULE
2zvp_NPO_2_ligand
   15    15     1     0     0
SMALL
NO_CHARGES


@<TRIPOS>ATOM
     1 C1          45.3120   -13.1310    12.7040 C.ar         1 NPO1202   0.0000
     2 C2          43.9380   -13.2740    12.4720 C.ar         1 NPO1202   0.0000
     3 C3          43.1170   -12.1470    12.4280 C.ar         1 NPO1202   0.0000
     4 C4          43.6690   -10.8750    12.6120 C.ar         1 NPO1202   0.0000
     5 C5          45.0370   -10.7270    12.8480 C.ar         1 NPO1202   0.0000
     6 C6          45.8560   -11.8560    12.8890 C.ar         1 NPO1202   0.0000
     7 OH          42.8770    -9.7730    12.5500 O.3          1 NPO1202   0.0000
     8 N1          46.1130   -14.2340    12.7470 N.2          1 NPO1202   1.0000
     9 O2          47.3140   -14.1380    12.9550 O.co2        1 NPO1202   0.0000
    10 O3          45.6220   -15.3420    12.5900 O.co2        1 NPO1202  -1.0000
    11 H1          43.5456   -14.1840    12.3379 H            1 NPO1202   0.0000
    12 H2          42.1356   -12.2483    12.2652 H            1 NPO1202   0.0000
    13 H3          45.4277    -9.8170    12.9869 H            1 NPO1202   0.0000
    14 H4          46.8373   -11.7528    13.0516 H            1 NPO1202   0.0000
    15 HH          41.8977    -9.8704    12.3726 H            1 NPO1202   0.0000
@<TRIPOS>BOND
     1    1    2      ar
     2    1    6      ar
     3    1    8       1
     4    2    3      ar
     5    3    4      ar
     6    4    5      ar
     7    4    7       1
     8    5    6      ar
     9    8    9      ar
    10    8   10      ar
    11    2   11       1
    12    3   12       1
    13    5   13       1
    14    6   14       1
    15    7   15       1
@<TRIPOS>SUBSTRUCTURE
     1 NPO1202     1 GROUP             4 X     NPO     0 **** NPO X1202
