@<TRIPOS>MOLECULE
./coach420/1i1h/ligand.pdb
 63 67 0 0 0
SMALL
GASTEIGER

@<TRIPOS>ATOM
      1  O44       48.9210   24.3940   -1.2710 O.co2 1121  COJ1121    -0.2406
      2  C13       55.7420   20.4230    2.3660 C.3   1121  COJ1121     0.0457
      3  C48       56.4810   18.9910    2.3760 C.3   1121  COJ1121     0.0181
      4  C49       58.0080   18.7970    2.1690 C.3   1121  COJ1121     0.1145
      5  C50       58.4710   17.4320    2.6610 C.2   1121  COJ1121     0.3649
      6  O51       58.8460   16.5800    1.8110 O.co2 1121  COJ1121    -0.2457
      7  O52       58.4370   17.1910    3.9170 O.co2 1121  COJ1121    -0.2457
      8  C14       56.4630   21.8050    2.0480 C.2   1121  COJ1121     0.0557
      9  C43       49.1270   24.2510   -2.5340 C.2   1121  COJ1121     0.3876
     10  O45       48.2590   24.6080   -3.4040 O.co2 1121  COJ1121    -0.2406
     11  C9        54.0470   23.1090   -1.3860 C.2   1121  COJ1121     0.0530
     12  C10       54.1090   22.0960   -0.5160 C.2   1121  COJ1121     0.0271
     13  C11       54.8550   21.7060    0.5580 C.2   1121  COJ1121     0.0592
     14  C12       54.5790   20.3920    1.2910 C.3   1121  COJ1121     0.0407
     15  C46       54.4870   19.1900    0.2830 C.3   1121  COJ1121     0.0063
     16  C47       53.2060   20.4830    2.0250 C.3   1121  COJ1121     0.0063
     17  C18       59.2890   26.0650    2.3620 C.3   1121  COJ1121     0.0407
     18  C60       60.3930   27.1480    2.1080 C.3   1121  COJ1121     0.1164
     19  C61       61.2770   27.6480    3.2460 C.2   1121  COJ1121     0.3649
     20  O63       62.5170   27.8690    3.0160 O.co2 1121  COJ1121    -0.2457
     21  O62       60.7360   27.8670    4.3760 O.co2 1121  COJ1121    -0.2457
     22  C19       58.4310   25.7880    1.1070 C.3   1121  COJ1121     0.1241
     23  O58       60.7000   22.5270    6.2530 O.co2 1121  COJ1121    -0.2457
     24  C15       57.5890   22.4640    2.6780 C.2   1121  COJ1121     0.0048
     25  O59       58.9000   22.2800    7.3760 O.co2 1121  COJ1121    -0.2457
     26  C16       58.2280   23.7540    2.4390 C.2   1121  COJ1121     0.0502
     27  C17       59.4730   24.5920    3.0750 C.3   1121  COJ1121     0.0377
     28  C54       60.7570   23.8600    2.5240 C.3   1121  COJ1121     0.0060
     29  C55       59.7860   24.7510    4.6700 C.3   1121  COJ1121     0.0174
     30  C56       58.9450   24.1120    5.8140 C.3   1121  COJ1121     0.1144
     31  C57       59.5610   22.8970    6.5330 C.2   1121  COJ1121     0.3649
     32  C42       50.4690   23.6900   -3.0290 C.2   1121  COJ1121     0.0819
     33  C25       58.0960   29.7130    0.4820 C.3   1121  COJ1121     0.0032
     34  C26       59.2910   27.6610   -0.5030 C.3   1121  COJ1121     0.1166
     35  C27       60.3950   28.3640   -1.3780 C.2   1121  COJ1121     0.3649
     36  O28       60.4850   28.0610   -2.6040 O.co2 1121  COJ1121    -0.2457
     37  O29       61.1760   29.2110   -0.8600 O.co2 1121  COJ1121    -0.2457
     38  C3        57.0000   28.3210   -1.5570 C.3   1121  COJ1121     0.0640
     39  C30       55.9590   29.5240   -1.7780 C.2   1121  COJ1121    -0.0137
     40  C2        57.8160   28.2900   -0.1770 C.3   1121  COJ1121     0.0404
     41  C64       58.1690   21.5970    3.8350 C.3   1121  COJ1121     0.0335
     42  N21       56.5530   26.3370   -0.4550 N.2   1121  COJ1121    -0.2766
     43  N22       54.8980   24.2090   -1.3230 N.pl3 1121  COJ1121    -0.2210
     44  N23       55.8460   22.3560    1.0440 N.2   1121  COJ1121    -0.2542
     45  N24       57.7660   24.4920    1.4960 N.2   1121  COJ1121    -0.2750
     46  C1        57.4670   26.9650    0.5160 C.3   1121  COJ1121     0.1058
     47  C20       56.4580   27.4410    1.6530 C.3   1121  COJ1121     0.0264
     48  C31       56.4350   30.8040   -2.5460 C.2   1121  COJ1121     0.0819
     49  C36       52.7890   25.3580   -4.1450 C.3   1121  COJ1121     0.0070
     50  C37       54.6280   23.5870   -4.4940 C.3   1121  COJ1121     0.1200
     51  C38       53.9030   22.7700   -5.5600 C.2   1121  COJ1121     0.3652
     52  O39       53.7600   23.2530   -6.7030 O.co2 1121  COJ1121    -0.2456
     53  O40       53.4370   21.6270   -5.2280 O.co2 1121  COJ1121    -0.2456
     54  C8        53.0610   23.2520   -2.5280 C.3   1121  COJ1121     0.0655
     55  C41       51.6260   23.6870   -1.9980 C.2   1121  COJ1121    -0.0136
     56  C7        53.7740   24.3550   -3.4370 C.3   1121  COJ1121     0.0524
     57  C32       55.3500   31.9430   -2.7010 C.2   1121  COJ1121     0.3876
     58  O34       54.9370   32.2670   -3.8870 O.co2 1121  COJ1121    -0.2406
     59  O33       54.8910   32.5140   -1.6360 O.co2 1121  COJ1121    -0.2406
     60  C4        56.2670   26.9240   -1.5390 C.2   1121  COJ1121     0.0543
     61  C5        55.4420   26.3240   -2.4640 C.2   1121  COJ1121     0.0028
     62  C35       55.2490   27.1830   -3.7130 C.3   1121  COJ1121     0.0333
     63  C6        54.7490   25.0960   -2.4330 C.2   1121  COJ1121     0.0455
@<TRIPOS>BOND
     1     1     9   ar
     2     2    14    1
     3     2     8    1
     4     2     3    1
     5     3     4    1
     6     4     5    1
     7     5     6   ar
     8     5     7   ar
     9     8    44    1
    10     8    24    2
    11     9    10   ar
    12     9    32    1
    13    11    54    1
    14    11    43    1
    15    11    12    2
    16    12    13    1
    17    13    44    2
    18    13    14    1
    19    14    15    1
    20    14    16    1
    21    17    22    1
    22    17    18    1
    23    17    27    1
    24    18    19    1
    25    19    20   ar
    26    19    21   ar
    27    22    46    1
    28    22    45    1
    29    23    31   ar
    30    24    26    1
    31    24    41    1
    32    25    31   ar
    33    26    45    2
    34    26    27    1
    35    27    28    1
    36    27    29    1
    37    29    30    1
    38    30    31    1
    39    32    55    2
    40    33    40    1
    41    34    35    1
    42    34    40    1
    43    35    36   ar
    44    35    37   ar
    45    38    39    1
    46    38    60    1
    47    38    40    1
    48    39    48    2
    49    40    46    1
    50    42    60    2
    51    42    46    1
    52    43    63    1
    53    46    47    1
    54    48    57    1
    55    49    56    1
    56    50    51    1
    57    50    56    1
    58    51    52   ar
    59    51    53   ar
    60    54    56    1
    61    54    55    1
    62    56    63    1
    63    57    58   ar
    64    57    59   ar
    65    60    61    1
    66    61    62    1
    67    61    63    2
