@<TRIPOS>MOLECULE
2uyw_BTN_1_ligand
   31    32     1     0     0
SMALL
NO_CHARGES


@<TRIPOS>ATOM
     1 C11          5.0870    35.2290    64.9790 C.2          1 BTN1123   0.0000
     2 O11          3.9130    35.4610    65.3690 O.co2        1 BTN1123   0.0000
     3 O12          5.8660    36.2030    64.7920 O.co2        1 BTN1123  -1.0000
     4 C10          5.5620    33.8030    64.7880 C.3          1 BTN1123   0.0000
     5 C9           6.9520    33.6270    64.1850 C.3          1 BTN1123   0.0000
     6 C8           6.9030    33.5700    62.6440 C.3          1 BTN1123   0.0000
     7 C7           8.2790    33.4050    62.0230 C.3          1 BTN1123   0.0000
     8 C2           8.2790    33.1810    60.5070 C.3          1 BTN1123   0.0000
     9 S1           7.6530    31.6780    60.0190 S.3          1 BTN1123   0.0000
    10 C6           8.2530    31.9720    58.3370 C.3          1 BTN1123   0.0000
    11 C5           9.6140    32.6440    58.5050 C.3          1 BTN1123   0.0000
    12 N1          10.6330    31.6320    58.5340 N.am         1 BTN1123   0.0000
    13 C3          11.2530    31.6210    59.7220 C.2          1 BTN1123   0.0000
    14 O3          12.2740    30.7130    60.0050 O.2          1 BTN1123   0.0000
    15 N2          10.7480    32.5180    60.5490 N.am         1 BTN1123   0.0000
    16 C4           9.6830    33.2830    59.8820 C.3          1 BTN1123   0.0000
    17 H1           4.9089    33.3426    64.1868 H            1 BTN1123   0.0000
    18 H2           5.5605    33.3591    65.6841 H            1 BTN1123   0.0000
    19 H3           7.3486    32.7756    64.5283 H            1 BTN1123   0.0000
    20 H4           7.5256    34.3977    64.4626 H            1 BTN1123   0.0000
    21 H5           6.4979    34.4189    62.3046 H            1 BTN1123   0.0000
    22 H6           6.3327    32.7956    62.3699 H            1 BTN1123   0.0000
    23 H7           8.7219    32.6185    62.4534 H            1 BTN1123   0.0000
    24 H8           8.8078    34.2317    62.2150 H            1 BTN1123   0.0000
    25 H9           7.7114    33.8939    60.0952 H            1 BTN1123   0.0000
    26 H10          7.6251    32.5720    57.8412 H            1 BTN1123   0.0000
    27 H11          8.3479    31.1077    57.8431 H            1 BTN1123   0.0000
    28 H12          9.7835    33.3135    57.7818 H            1 BTN1123   0.0000
    29 H13         10.8497    31.0204    57.7731 H            1 BTN1123   0.0000
    30 H14         11.0466    32.6573    61.4932 H            1 BTN1123   0.0000
    31 H15          9.9517    34.2428    59.8002 H            1 BTN1123   0.0000
@<TRIPOS>BOND
     1    1    2      ar
     2    1    3      ar
     3    1    4       1
     4    4    5       1
     5    5    6       1
     6    6    7       1
     7    7    8       1
     8    8    9       1
     9    8   16       1
    10    9   10       1
    11   10   11       1
    12   11   12       1
    13   11   16       1
    14   12   13      am
    15   13   14       2
    16   13   15      am
    17   15   16       1
    18   16   31       1
    19    4   17       1
    20    4   18       1
    21    5   19       1
    22    5   20       1
    23    6   21       1
    24    6   22       1
    25    7   23       1
    26    7   24       1
    27    8   25       1
    28   10   26       1
    29   10   27       1
    30   11   28       1
    31   12   29       1
    32   15   30       1
@<TRIPOS>SUBSTRUCTURE
     1 BTN1123     1 GROUP             4 A     BTN     0 **** BTN A1123
