@<TRIPOS>MOLECULE
5bp9_SAH_1_ligand
   46    48     1     0     0
SMALL
NO_CHARGES


@<TRIPOS>ATOM
     1 N            9.7500    42.7560    21.5370 N.4          1 SAH303   1.0000
     2 CA          10.6370    43.8000    22.1810 C.3          1 SAH303   0.0000
     3 CB          12.1360    43.4660    22.1430 C.3          1 SAH303   0.0000
     4 CG          12.7130    43.1150    20.7710 C.3          1 SAH303   0.0000
     5 SD          14.4230    42.6800    20.9070 S.3          1 SAH303   0.0000
     6 C           10.4300    45.1410    21.5330 C.2          1 SAH303   0.0000
     7 O            9.6990    45.2650    20.5560 O.co2        1 SAH303   0.0000
     8 OXT         10.9720    46.1650    21.9460 O.co2        1 SAH303  -1.0000
     9 C5'         14.3520    40.9070    20.9250 C.3          1 SAH303   0.0000
    10 C4'         14.1040    40.3410    22.3180 C.3          1 SAH303   0.0000
    11 O4'         13.9760    38.9080    22.2010 O.3          1 SAH303   0.0000
    12 C3'         15.2020    40.5770    23.3520 C.3          1 SAH303   0.0000
    13 O3'         14.6310    41.1390    24.5560 O.3          1 SAH303   0.0000
    14 C2'         15.8140    39.1970    23.5700 C.3          1 SAH303   0.0000
    15 O2'         16.4090    38.9830    24.8350 O.3          1 SAH303   0.0000
    16 C1'         14.6430    38.2790    23.3050 C.3          1 SAH303   0.0000
    17 N9          14.9420    36.8930    22.9130 N.pl3        1 SAH303   0.0000
    18 C8          15.9040    36.4880    22.0670 C.2          1 SAH303   0.0000
    19 N7          15.9140    35.2090    21.8420 N.2          1 SAH303   0.0000
    20 C5          14.8530    34.7310    22.5850 C.ar         1 SAH303   0.0000
    21 C6          14.3200    33.4500    22.7880 C.ar         1 SAH303   0.0000
    22 N6          14.8140    32.3480    22.1980 N.pl3        1 SAH303   0.0000
    23 N1          13.2440    33.3200    23.6130 N.ar         1 SAH303   0.0000
    24 C2          12.7520    34.4260    24.2110 C.ar         1 SAH303   0.0000
    25 N3          13.1830    35.6930    24.0820 N.ar         1 SAH303   0.0000
    26 C4          14.2490    35.7870    23.2620 C.ar         1 SAH303   0.0000
    27 H1           8.8575    42.7528    21.9880 H            1 SAH303   0.0000
    28 H2           9.6327    42.9705    20.5673 H            1 SAH303   0.0000
    29 HA          10.3666    43.8800    23.1404 H            1 SAH303   0.0000
    30 HB1         12.2903    42.6850    22.7481 H            1 SAH303   0.0000
    31 HB2         12.6348    44.2602    22.4900 H            1 SAH303   0.0000
    32 HG1         12.6221    43.9048    20.1644 H            1 SAH303   0.0000
    33 HG2         12.2065    42.3417    20.3896 H            1 SAH303   0.0000
    34 H5'1        15.2213    40.5488    20.5845 H            1 SAH303   0.0000
    35 H5'2        13.6106    40.6106    20.3229 H            1 SAH303   0.0000
    36 H4'         13.2451    40.7137    22.6691 H            1 SAH303   0.0000
    37 H3'         15.8908    41.1993    22.9801 H            1 SAH303   0.0000
    38 H12         13.9548    40.5052    24.9315 H            1 SAH303   0.0000
    39 H2'         16.5050    39.0414    22.8641 H            1 SAH303   0.0000
    40 H14         15.7211    39.1008    25.5512 H            1 SAH303   0.0000
    41 H1'         14.0372    38.2756    24.1006 H            1 SAH303   0.0000
    42 H16         16.5569    37.1179    21.6463 H            1 SAH303   0.0000
    43 H17         14.3976    31.4564    22.3757 H            1 SAH303   0.0000
    44 H18         15.5979    32.4198    21.5813 H            1 SAH303   0.0000
    45 H19         11.9738    34.2860    24.8232 H            1 SAH303   0.0000
    46 H20         10.1738    41.8551    21.6302 H            1 SAH303   0.0000
@<TRIPOS>BOND
     1    1    2       1
     2    2    3       1
     3    2    6       1
     4    3    4       1
     5    4    5       1
     6    5    9       1
     7    6    7      ar
     8    6    8      ar
     9    9   10       1
    10   10   11       1
    11   10   12       1
    12   11   16       1
    13   12   13       1
    14   12   14       1
    15   14   15       1
    16   14   16       1
    17   16   17       1
    18   17   18       1
    19   17   26       1
    20   18   19       2
    21   19   20       1
    22   20   21      ar
    23   20   26      ar
    24   21   22       1
    25   21   23      ar
    26   23   24      ar
    27   24   25      ar
    28   25   26      ar
    29    1   27       1
    30    1   28       1
    31    2   29       1
    32    3   30       1
    33    3   31       1
    34    4   32       1
    35    4   33       1
    36    1   46       1
    37    9   34       1
    38    9   35       1
    39   10   36       1
    40   12   37       1
    41   13   38       1
    42   14   39       1
    43   15   40       1
    44   16   41       1
    45   18   42       1
    46   22   43       1
    47   22   44       1
    48   24   45       1
@<TRIPOS>SUBSTRUCTURE
     1 SAH303      1 GROUP             4 A     SAH     0 **** SAH A 303
