@<TRIPOS>MOLECULE
4l82_FMN_2_ligand
   31    33     1     0     0
SMALL
NO_CHARGES


@<TRIPOS>ATOM
     1 N1          -3.6800   -10.5630    17.4930 N.2          1 FMN203   0.0000
     2 C2          -3.5100    -9.2930    17.9450 C.2          1 FMN203   0.0000
     3 O2          -2.3810    -8.9770    18.3740 O.2          1 FMN203   0.0000
     4 N3          -4.5060    -8.3900    17.9570 N.pl3        1 FMN203   0.0000
     5 C4          -5.7480    -8.6780    17.5070 C.2          1 FMN203   0.0000
     6 O4          -6.6760    -7.8380    17.4900 O.2          1 FMN203   0.0000
     7 C4A         -6.0020   -10.0410    16.9950 C.2          1 FMN203   0.0000
     8 N5          -7.2150   -10.4100    16.5370 N.2          1 FMN203   0.0000
     9 C5A         -7.4220   -11.6540    16.0570 C.ar         1 FMN203   0.0000
    10 C6          -8.6810   -12.0090    15.5730 C.ar         1 FMN203   0.0000
    11 C7          -8.9270   -13.2890    15.1000 C.ar         1 FMN203   0.0000
    12 C7M        -10.2870   -13.6620    14.5890 C.3          1 FMN203   0.0000
    13 C8          -7.8290   -14.2780    15.0980 C.ar         1 FMN203   0.0000
    14 C8M         -8.0670   -15.6620    14.5830 C.3          1 FMN203   0.0000
    15 C9          -6.5590   -13.9360    15.5630 C.ar         1 FMN203   0.0000
    16 C9A         -6.3200   -12.6520    16.0500 C.ar         1 FMN203   0.0000
    17 N10         -5.0450   -12.2860    16.5390 N.pl3        1 FMN203   0.0000
    18 C10         -4.8650   -10.9760    17.0100 C.2          1 FMN203   0.0000
    19 C1'         -3.9160   -13.2200    16.5520 C.3          1 FMN203   0.0000
    20 H1          -4.3217    -7.4732    18.3112 H            1 FMN203   0.0000
    21 H2          -9.4162   -11.3312    15.5670 H            1 FMN203   0.0000
    22 H7M1       -10.2809   -14.6166    14.2912 H            1 FMN203   0.0000
    23 H7M2       -10.9609   -13.5447    15.3185 H            1 FMN203   0.0000
    24 H7M3       -10.5259   -13.0734    13.8167 H            1 FMN203   0.0000
    25 H8M1        -7.2234   -16.1941    14.6549 H            1 FMN203   0.0000
    26 H8M2        -8.7847   -16.1002    15.1242 H            1 FMN203   0.0000
    27 H8M3        -8.3521   -15.6170    13.6256 H            1 FMN203   0.0000
    28 H9          -5.8213   -14.6109    15.5470 H            1 FMN203   0.0000
    29 H1'1        -3.1118   -12.7655    16.9351 H            1 FMN203   0.0000
    30 H1'2        -4.1478   -14.0154    17.1121 H            1 FMN203   0.0000
    31 H1'3        -3.7179   -13.5165    15.6177 H            1 FMN203   0.0000
@<TRIPOS>BOND
     1    1    2       1
     2    1   18       2
     3    2    3       2
     4    2    4       1
     5    4    5       1
     6    5    6       2
     7    5    7       1
     8    7    8       2
     9    7   18       1
    10    8    9       1
    11    9   10      ar
    12    9   16      ar
    13   10   11      ar
    14   11   12       1
    15   11   13      ar
    16   13   14       1
    17   13   15      ar
    18   15   16      ar
    19   16   17       1
    20   17   18       1
    21   17   19       1
    22    4   20       1
    23   10   21       1
    24   12   22       1
    25   12   23       1
    26   12   24       1
    27   14   25       1
    28   14   26       1
    29   14   27       1
    30   15   28       1
    31   19   29       1
    32   19   30       1
    33   19   31       1
@<TRIPOS>SUBSTRUCTURE
     1 FMN203      1 GROUP             4 B     FMN     0 **** FMN B 203
