@<TRIPOS>MOLECULE
2gzl_2AA_1_ligand
   73    76     1     0     0
SMALL
NO_CHARGES


@<TRIPOS>ATOM
     1 C13          2.0430    21.1520    38.9010 C.3          1 2AA901   0.0000
     2 N5           3.2500    20.9920    38.3810 N.pl3        1 2AA901   0.0000
     3 C12          4.3100    21.3390    39.0950 C.3          1 2AA901   0.0000
     4 C11          3.3870    20.4910    37.1420 C.ar         1 2AA901   0.0000
     5 C10          3.1060    21.3230    36.0560 C.ar         1 2AA901   0.0000
     6 C9'          3.2310    20.8520    34.7520 C.ar         1 2AA901   0.0000
     7 C8'          3.6350    19.5390    34.5250 C.ar         1 2AA901   0.0000
     8 C7'          3.9210    18.6770    35.5890 C.ar         1 2AA901   0.0000
     9 C6'          3.7930    19.1610    36.9080 C.ar         1 2AA901   0.0000
    10 C5'          4.0760    18.3050    37.9800 C.ar         1 2AA901   0.0000
    11 C4'          4.4790    16.9910    37.7530 C.ar         1 2AA901   0.0000
    12 C3'          4.6070    16.5170    36.4490 C.ar         1 2AA901   0.0000
    13 C2'          4.3310    17.3450    35.3560 C.ar         1 2AA901   0.0000
    14 S1           4.5090    16.6820    33.8120 S.o2         1 2AA901   0.0000
    15 O3'          3.9250    15.2930    33.7970 O.2          1 2AA901   0.0000
    16 O4'          3.8010    17.5150    32.7840 O.2          1 2AA901   0.0000
    17 N4           6.1170    16.5780    33.4340 N.3          1 2AA901   0.0000
    18 C1'          6.3820    16.8480    32.0100 C.3          1 2AA901   0.0000
    19 C9           5.9900    15.6310    31.1720 C.3          1 2AA901   0.0000
    20 O2'          7.1550    14.8740    30.8370 O.3          1 2AA901   0.0000
    21 P2           7.6500    14.7930    29.2970 P.3          1 2AA901   0.0000
    22 O1'          6.7500    15.6350    28.4650 O.co2        1 2AA901   0.0000
    23 O9           9.1180    15.0230    29.2310 O.co2        1 2AA901  -1.0000
    24 O8           7.3720    13.2060    28.9570 O.3          1 2AA901   0.0000
    25 P1           8.5080    12.0420    28.8410 P.3          1 2AA901   0.0000
    26 O7           7.8000    10.7440    28.8520 O.co2        1 2AA901   0.0000
    27 O6           9.4520    12.3280    27.7470 O.co2        1 2AA901  -1.0000
    28 O5           9.3160    12.1810    30.2210 O.3          1 2AA901   0.0000
    29 C14          8.9290    11.4290    31.3920 C.3          1 2AA901   0.0000
    30 C8          10.1370    11.0050    32.2330 C.3          1 2AA901   0.0000
    31 O2          10.4520     9.6410    31.9150 O.3          1 2AA901   0.0000
    32 C7          11.3670    11.8100    31.8230 C.3          1 2AA901   0.0000
    33 O4          11.4500    12.9790    32.6340 O.3          1 2AA901   0.0000
    34 C6          12.5080    10.8680    32.1440 C.3          1 2AA901   0.0000
    35 O3          12.9120    11.0640    33.4930 O.3          1 2AA901   0.0000
    36 C5          11.8800     9.4760    32.0220 C.3          1 2AA901   0.0000
    37 N3          12.2910     8.7070    30.8180 N.pl3        1 2AA901   0.0000
    38 C4          11.9230     9.0820    29.5070 C.2          1 2AA901   0.0000
    39 C3          12.3470     8.2880    28.4430 C.2          1 2AA901   0.0000
    40 C2          13.1070     7.1480    28.6980 C.2          1 2AA901   0.0000
    41 N2          13.5230     6.3730    27.7000 N.pl3        1 2AA901   0.0000
    42 N1          13.4360     6.8090    29.9500 N.2          1 2AA901   0.0000
    43 C1          13.0570     7.5510    30.9980 C.2          1 2AA901   0.0000
    44 O1          13.3880     7.2080    32.1250 O.2          1 2AA901   0.0000
    45 H1           1.3538    20.8462    38.2441 H            1 2AA901   0.0000
    46 H2           1.9670    20.6123    39.7394 H            1 2AA901   0.0000
    47 H3           1.8965    22.1184    39.1122 H            1 2AA901   0.0000
    48 H4           5.1405    21.1585    38.5680 H            1 2AA901   0.0000
    49 H5           4.2597    22.3133    39.3145 H            1 2AA901   0.0000
    50 H6           4.3302    20.8072    39.9416 H            1 2AA901   0.0000
    51 H7           2.8124    22.2654    36.2166 H            1 2AA901   0.0000
    52 H9'          3.0311    21.4553    33.9800 H            1 2AA901   0.0000
    53 H8'          3.7221    19.2067    33.5859 H            1 2AA901   0.0000
    54 H5'          3.9878    18.6406    38.9179 H            1 2AA901   0.0000
    55 H4'          4.6764    16.3879    38.5259 H            1 2AA901   0.0000
    56 H3'          4.8997    15.5736    36.2927 H            1 2AA901   0.0000
    57 H13          6.4381    15.6560    33.6505 H            1 2AA901   0.0000
    58 H1'1         7.3555    17.0388    31.8836 H            1 2AA901   0.0000
    59 H1'2         5.8463    17.6398    31.7167 H            1 2AA901   0.0000
    60 H16          5.5412    15.9374    30.3325 H            1 2AA901   0.0000
    61 H17          5.3609    15.0567    31.6958 H            1 2AA901   0.0000
    62 H18          8.4363    10.6093    31.0999 H            1 2AA901   0.0000
    63 H19          8.3279    11.9963    31.9549 H            1 2AA901   0.0000
    64 H20          9.9487    11.1109    33.2094 H            1 2AA901   0.0000
    65 H21         11.3457    12.0405    30.8502 H            1 2AA901   0.0000
    66 H22         11.8896    13.7132    32.1166 H            1 2AA901   0.0000
    67 H23         13.2721    10.9847    31.5096 H            1 2AA901   0.0000
    68 H24         12.7453    12.0142    33.7562 H            1 2AA901   0.0000
    69 H25         12.0913     8.9445    32.8423 H            1 2AA901   0.0000
    70 H26         11.3702     9.8995    29.3457 H            1 2AA901   0.0000
    71 H27         12.1077     8.5344    27.5038 H            1 2AA901   0.0000
    72 H28         14.0678     5.5572    27.8941 H            1 2AA901   0.0000
    73 H29         13.2909     6.6062    26.7557 H            1 2AA901   0.0000
@<TRIPOS>BOND
     1    1    2       1
     2    2    3       1
     3    2    4       1
     4    4    5      ar
     5    4    9      ar
     6    5    6      ar
     7    6    7      ar
     8    7    8      ar
     9    8    9      ar
    10    8   13      ar
    11    9   10      ar
    12   10   11      ar
    13   11   12      ar
    14   12   13      ar
    15   13   14       1
    16   14   15       2
    17   14   16       2
    18   14   17       1
    19   17   18       1
    20   18   19       1
    21   19   20       1
    22   20   21       1
    23   21   22      ar
    24   21   23      ar
    25   21   24       1
    26   24   25       1
    27   25   26      ar
    28   25   27      ar
    29   25   28       1
    30   28   29       1
    31   29   30       1
    32   30   31       1
    33   30   32       1
    34   31   36       1
    35   32   33       1
    36   32   34       1
    37   34   35       1
    38   34   36       1
    39   36   37       1
    40   37   38       1
    41   37   43       1
    42   38   39       2
    43   39   40       1
    44   40   41       1
    45   40   42       2
    46   42   43       1
    47   43   44       2
    48    1   45       1
    49    1   46       1
    50    1   47       1
    51    3   48       1
    52    3   49       1
    53    3   50       1
    54    5   51       1
    55    6   52       1
    56    7   53       1
    57   10   54       1
    58   11   55       1
    59   12   56       1
    60   17   57       1
    61   18   58       1
    62   18   59       1
    63   19   60       1
    64   19   61       1
    65   41   73       1
    66   41   72       1
    67   29   62       1
    68   29   63       1
    69   30   64       1
    70   32   65       1
    71   33   66       1
    72   34   67       1
    73   35   68       1
    74   36   69       1
    75   38   70       1
    76   39   71       1
@<TRIPOS>SUBSTRUCTURE
     1 2AA901      1 GROUP             4 A     2AA     0 **** 2AA A 901
