@<TRIPOS>MOLECULE
3ic9_FAD_1_ligand
   84    89     1     0     0
SMALL
NO_CHARGES


@<TRIPOS>ATOM
     1 PA         -19.4630   135.3590    13.5850 P.3          1 FAD490   0.0000
     2 O1A        -20.3130   134.3400    14.3180 O.co2        1 FAD490   0.0000
     3 O2A        -19.2470   136.6410    14.3580 O.co2        1 FAD490  -1.0000
     4 O5B        -20.0960   135.7240    12.1470 O.3          1 FAD490   0.0000
     5 C5B        -20.6850   134.7230    11.3640 C.3          1 FAD490   0.0000
     6 C4B        -21.9940   135.2890    10.8320 C.3          1 FAD490   0.0000
     7 O4B        -22.4710   134.5030     9.7530 O.3          1 FAD490   0.0000
     8 C3B        -23.0950   135.3000    11.8850 C.3          1 FAD490   0.0000
     9 O3B        -23.6210   136.6210    11.9830 O.3          1 FAD490   0.0000
    10 C2B        -24.1030   134.2690    11.3890 C.3          1 FAD490   0.0000
    11 O2B        -25.4350   134.6210    11.6710 O.3          1 FAD490   0.0000
    12 C1B        -23.8870   134.3190     9.8860 C.3          1 FAD490   0.0000
    13 N9A        -24.2510   133.1230     9.0810 N.pl3        1 FAD490   0.0000
    14 C8A        -23.9610   131.8000     9.3410 C.2          1 FAD490   0.0000
    15 N7A        -24.4180   131.0400     8.3160 N.2          1 FAD490   0.0000
    16 C5A        -24.9690   131.8500     7.3850 C.ar         1 FAD490   0.0000
    17 C6A        -25.5570   131.6110     6.1330 C.ar         1 FAD490   0.0000
    18 N6A        -25.4670   130.4150     5.5490 N.pl3        1 FAD490   0.0000
    19 N1A        -26.0350   132.6800     5.3870 N.ar         1 FAD490   0.0000
    20 C2A        -25.9310   133.9770     5.8670 C.ar         1 FAD490   0.0000
    21 N3A        -25.3510   134.2020     7.0880 N.ar         1 FAD490   0.0000
    22 C4A        -24.8610   133.1650     7.8390 C.ar         1 FAD490   0.0000
    23 N1         -12.3930   135.2410    21.1600 N.2          1 FAD490   0.0000
    24 C2         -11.4180   136.0730    21.6430 C.2          1 FAD490   0.0000
    25 O2         -10.4720   136.4160    20.9090 O.2          1 FAD490   0.0000
    26 N3         -11.5010   136.5140    22.9670 N.pl3        1 FAD490   0.0000
    27 C4         -12.5450   136.1170    23.7690 C.2          1 FAD490   0.0000
    28 O4         -12.5830   136.5420    24.9100 O.2          1 FAD490   0.0000
    29 C4X        -13.5370   135.2620    23.2680 C.2          1 FAD490   0.0000
    30 N5         -14.5960   134.8610    24.0490 N.2          1 FAD490   0.0000
    31 C5X        -15.5810   134.0320    23.5510 C.ar         1 FAD490   0.0000
    32 C6         -16.6230   133.6470    24.3970 C.ar         1 FAD490   0.0000
    33 C7         -17.6340   132.8230    23.9390 C.ar         1 FAD490   0.0000
    34 C7M        -18.7480   132.4370    24.8900 C.3          1 FAD490   0.0000
    35 C8         -17.5920   132.3780    22.6120 C.ar         1 FAD490   0.0000
    36 C8M        -18.6710   131.4770    22.0870 C.3          1 FAD490   0.0000
    37 C9         -16.5370   132.7400    21.7480 C.ar         1 FAD490   0.0000
    38 C9A        -15.5170   133.5900    22.2190 C.ar         1 FAD490   0.0000
    39 N10        -14.4510   134.0030    21.4160 N.pl3        1 FAD490   0.0000
    40 C10        -13.4660   134.8340    21.9420 C.2          1 FAD490   0.0000
    41 C1'        -14.3550   133.6110    19.9540 C.3          1 FAD490   0.0000
    42 C2'        -14.9290   134.6670    18.9990 C.3          1 FAD490   0.0000
    43 O2'        -16.2840   134.9990    19.3050 O.3          1 FAD490   0.0000
    44 C3'        -14.9050   134.0970    17.5910 C.3          1 FAD490   0.0000
    45 O3'        -13.5600   133.8400    17.2790 O.3          1 FAD490   0.0000
    46 C4'        -15.5090   135.0920    16.6040 C.3          1 FAD490   0.0000
    47 O4'        -16.8130   135.4530    17.0050 O.3          1 FAD490   0.0000
    48 C5'        -15.6280   134.5420    15.1840 C.3          1 FAD490   0.0000
    49 O5'        -16.1410   135.6090    14.4140 O.3          1 FAD490   0.0000
    50 P          -16.6930   135.2880    12.9650 P.3          1 FAD490   0.0000
    51 O1P        -16.8670   136.5190    12.1290 O.co2        1 FAD490   0.0000
    52 O2P        -15.7830   134.2370    12.3740 O.co2        1 FAD490  -1.0000
    53 O3P        -18.1140   134.5770    13.2040 O.3          1 FAD490   0.0000
    54 H5B1       -20.8625   133.9113    11.9204 H            1 FAD490   0.0000
    55 H5B2       -20.0813   134.4810    10.6044 H            1 FAD490   0.0000
    56 H4B        -21.8393   136.2236    10.5117 H            1 FAD490   0.0000
    57 H3B        -22.7236   135.0151    12.7687 H            1 FAD490   0.0000
    58 H5         -23.5417   137.0779    11.0970 H            1 FAD490   0.0000
    59 H2B        -23.8905   133.3608    11.7495 H            1 FAD490   0.0000
    60 H7         -25.6502   135.4921    11.2296 H            1 FAD490   0.0000
    61 H1B        -24.3574   135.1193     9.5142 H            1 FAD490   0.0000
    62 H8A        -23.4900   131.4571    10.1538 H            1 FAD490   0.0000
    63 H6A1       -25.8915   130.2610     4.6568 H            1 FAD490   0.0000
    64 H6A2       -24.9750   129.6724     6.0034 H            1 FAD490   0.0000
    65 H2A        -26.2771   134.7432     5.3255 H            1 FAD490   0.0000
    66 H13        -10.7966   137.1221    23.3332 H            1 FAD490   0.0000
    67 H14        -16.6380   133.9704    25.3431 H            1 FAD490   0.0000
    68 H7M1       -19.3988   131.8428    24.4174 H            1 FAD490   0.0000
    69 H7M2       -18.3629   131.9518    25.6750 H            1 FAD490   0.0000
    70 H7M3       -19.2177   133.2616    25.2054 H            1 FAD490   0.0000
    71 H8M1       -18.4858   131.2582    21.1290 H            1 FAD490   0.0000
    72 H8M2       -18.6913   130.6334    22.6236 H            1 FAD490   0.0000
    73 H8M3       -19.5551   131.9389    22.1585 H            1 FAD490   0.0000
    74 H21        -16.5135   132.3962    20.8093 H            1 FAD490   0.0000
    75 H1'1       -14.8583   132.7571    19.8214 H            1 FAD490   0.0000
    76 H1'2       -13.3916   133.4688    19.7268 H            1 FAD490   0.0000
    77 H2'        -14.3658   135.4925    19.0354 H            1 FAD490   0.0000
    78 H25        -16.7598   135.2639    18.4663 H            1 FAD490   0.0000
    79 H3'        -15.4242   133.2427    17.5661 H            1 FAD490   0.0000
    80 H27        -13.5064   133.0687    16.6448 H            1 FAD490   0.0000
    81 H4'        -14.9388   135.9133    16.5847 H            1 FAD490   0.0000
    82 H29        -17.0087   136.3857    16.7021 H            1 FAD490   0.0000
    83 H5'1       -16.2529   133.7616    15.1617 H            1 FAD490   0.0000
    84 H5'2       -14.7317   134.2613    14.8407 H            1 FAD490   0.0000
@<TRIPOS>BOND
     1    1    2      ar
     2    1    3      ar
     3    1    4       1
     4    1   53       1
     5    4    5       1
     6    5    6       1
     7    6    7       1
     8    6    8       1
     9    7   12       1
    10    8    9       1
    11    8   10       1
    12   10   11       1
    13   10   12       1
    14   12   13       1
    15   13   14       1
    16   13   22       1
    17   14   15       2
    18   15   16       1
    19   16   17      ar
    20   16   22      ar
    21   17   18       1
    22   17   19      ar
    23   19   20      ar
    24   20   21      ar
    25   21   22      ar
    26   23   24       1
    27   23   40       2
    28   24   25       2
    29   24   26       1
    30   26   27       1
    31   27   28       2
    32   27   29       1
    33   29   30       2
    34   29   40       1
    35   30   31       1
    36   31   32      ar
    37   31   38      ar
    38   32   33      ar
    39   33   34       1
    40   33   35      ar
    41   35   36       1
    42   35   37      ar
    43   37   38      ar
    44   38   39       1
    45   39   40       1
    46   39   41       1
    47   41   42       1
    48   42   43       1
    49   42   44       1
    50   44   45       1
    51   44   46       1
    52   46   47       1
    53   46   48       1
    54   48   49       1
    55   49   50       1
    56   50   51      ar
    57   50   52      ar
    58   50   53       1
    59   48   84       1
    60    5   54       1
    61    5   55       1
    62    6   56       1
    63    8   57       1
    64    9   58       1
    65   10   59       1
    66   11   60       1
    67   12   61       1
    68   14   62       1
    69   18   63       1
    70   18   64       1
    71   20   65       1
    72   26   66       1
    73   32   67       1
    74   34   68       1
    75   34   69       1
    76   34   70       1
    77   36   71       1
    78   36   72       1
    79   36   73       1
    80   37   74       1
    81   41   75       1
    82   41   76       1
    83   42   77       1
    84   43   78       1
    85   44   79       1
    86   45   80       1
    87   46   81       1
    88   47   82       1
    89   48   83       1
@<TRIPOS>SUBSTRUCTURE
     1 FAD490      1 GROUP             4 A     FAD     0 **** FAD A 490
