@<TRIPOS>MOLECULE
3x3x_PEL_2_ligand
   19    19     1     0     0
SMALL
NO_CHARGES


@<TRIPOS>ATOM
     1 C1'         -4.9890   -63.4490   -27.8880 C.ar         1 PEL703   0.0000
     2 C2'         -6.3400   -63.3600   -27.5890 C.ar         1 PEL703   0.0000
     3 C3'         -7.1430   -62.4100   -28.2070 C.ar         1 PEL703   0.0000
     4 C4'         -6.5960   -61.5390   -29.1350 C.ar         1 PEL703   0.0000
     5 C5'         -5.2420   -61.6220   -29.4440 C.ar         1 PEL703   0.0000
     6 C6'         -4.4400   -62.5820   -28.8340 C.ar         1 PEL703   0.0000
     7 CA          -4.1420   -64.5110   -27.2050 C.3          1 PEL703   0.0000
     8 C           -2.9130   -63.9720   -26.4980 C.3          1 PEL703   0.0000
     9 OXT         -3.3380   -63.1980   -25.3960 O.3          1 PEL703   0.0000
    10 H2'         -6.7408   -63.9869   -26.9209 H            1 PEL703   0.0000
    11 H3'         -8.1158   -62.3548   -27.9821 H            1 PEL703   0.0000
    12 H4'         -7.1718   -60.8536   -29.5808 H            1 PEL703   0.0000
    13 H5'         -4.8432   -60.9889   -30.1075 H            1 PEL703   0.0000
    14 H6'         -3.4715   -62.6505   -29.0732 H            1 PEL703   0.0000
    15 HA1         -3.8420   -65.1658   -27.8987 H            1 PEL703   0.0000
    16 HA2         -4.7117   -64.9788   -26.5293 H            1 PEL703   0.0000
    17 H8          -2.3838   -63.4025   -27.1270 H            1 PEL703   0.0000
    18 H9          -2.3462   -64.7316   -26.1790 H            1 PEL703   0.0000
    19 HXT         -2.6491   -63.2417   -24.6725 H            1 PEL703   0.0000
@<TRIPOS>BOND
     1    1    2      ar
     2    1    6      ar
     3    1    7       1
     4    2    3      ar
     5    3    4      ar
     6    4    5      ar
     7    5    6      ar
     8    7    8       1
     9    8    9       1
    10    2   10       1
    11    3   11       1
    12    4   12       1
    13    5   13       1
    14    6   14       1
    15    7   15       1
    16    7   16       1
    17    8   17       1
    18    8   18       1
    19    9   19       1
@<TRIPOS>SUBSTRUCTURE
     1 PEL703      1 GROUP             4 B     PEL     0 **** PEL B 703
