@<TRIPOS>MOLECULE
3bfa_9OD_1_ligand
   28    27     1     0     0
SMALL
NO_CHARGES


@<TRIPOS>ATOM
     1 O9          13.4370    14.1280    -3.6190 O.2          1 9OD120   0.0000
     2 C9          13.2860    13.6530    -2.4990 C.2          1 9OD120   0.0000
     3 C10         11.9290    13.5640    -1.8630 C.3          1 9OD120   0.0000
     4 C8          14.4880    13.1390    -1.7300 C.3          1 9OD120   0.0000
     5 C7          15.4140    12.3510    -2.6570 C.3          1 9OD120   0.0000
     6 C6          16.5320    11.6440    -1.9050 C.3          1 9OD120   0.0000
     7 C5          17.5020    10.9540    -2.8630 C.3          1 9OD120   0.0000
     8 C4          18.9710    11.1610    -2.4680 C.3          1 9OD120   0.0000
     9 C3          19.8180    10.1520    -3.2120 C.2          1 9OD120   0.0000
    10 C2          21.1550    10.0670    -3.1980 C.2          1 9OD120   0.0000
    11 C1          22.0830    10.9420    -2.4510 C.2          1 9OD120   0.0000
    12 OE1         23.3060    10.7090    -2.5680 O.co2        1 9OD120   0.0000
    13 OE2         21.6660    11.8790    -1.7360 O.co2        1 9OD120  -1.0000
    14 H1          12.0123    13.1503    -0.9564 H            1 9OD120   0.0000
    15 H2          11.5407    14.4814    -1.7764 H            1 9OD120   0.0000
    16 H3          11.3302    13.0010    -2.4326 H            1 9OD120   0.0000
    17 H4          14.1760    12.5425    -0.9905 H            1 9OD120   0.0000
    18 H5          14.9888    13.9139    -1.3444 H            1 9OD120   0.0000
    19 H6          15.8213    12.9834    -3.3159 H            1 9OD120   0.0000
    20 H7          14.8723    11.6657    -3.1438 H            1 9OD120   0.0000
    21 H8          16.1318    10.9577    -1.2976 H            1 9OD120   0.0000
    22 H9          17.0347    12.3169    -1.3623 H            1 9OD120   0.0000
    23 H10         17.3623    11.3240    -3.7815 H            1 9OD120   0.0000
    24 H11         17.3063     9.9733    -2.8654 H            1 9OD120   0.0000
    25 H12         19.0767    11.0282    -1.4825 H            1 9OD120   0.0000
    26 H13         19.2582    12.0872    -2.7122 H            1 9OD120   0.0000
    27 H14         19.3307     9.4808    -3.7706 H            1 9OD120   0.0000
    28 H15         21.5658     9.3394    -3.7474 H            1 9OD120   0.0000
@<TRIPOS>BOND
     1    1    2       2
     2    2    3       1
     3    2    4       1
     4    4    5       1
     5    5    6       1
     6    6    7       1
     7    7    8       1
     8    8    9       1
     9    9   10       2
    10   10   11       1
    11   11   12      ar
    12   11   13      ar
    13    3   14       1
    14    3   15       1
    15    3   16       1
    16    4   17       1
    17    4   18       1
    18    5   19       1
    19    5   20       1
    20    6   21       1
    21    6   22       1
    22    7   23       1
    23    7   24       1
    24    8   25       1
    25    8   26       1
    26    9   27       1
    27   10   28       1
@<TRIPOS>SUBSTRUCTURE
     1 9OD120      1 GROUP             4 A     9OD     0 **** 9OD A 120
