@<TRIPOS>MOLECULE
4qys_PLR_1_ligand
   25    25     1     0     0
SMALL
NO_CHARGES


@<TRIPOS>ATOM
     1 N1          -1.9210   -11.8130   -38.7560 N.ar         1 PLR501   0.0000
     2 C2          -2.5240   -11.6320   -37.5630 C.ar         1 PLR501   0.0000
     3 C2A         -1.9180   -10.6910   -36.5430 C.3          1 PLR501   0.0000
     4 C3          -3.6990   -12.3130   -37.2860 C.ar         1 PLR501   0.0000
     5 O3          -4.2820   -12.0930   -36.0220 O.3          1 PLR501   0.0000
     6 C4          -4.2470   -13.1590   -38.2270 C.ar         1 PLR501   0.0000
     7 C4A         -5.5280   -13.9390   -37.9540 C.3          1 PLR501   0.0000
     8 C5          -3.6300   -13.3200   -39.4390 C.ar         1 PLR501   0.0000
     9 C6          -2.4490   -12.6440   -39.6920 C.ar         1 PLR501   0.0000
    10 C5A         -4.1690   -14.2440   -40.5160 C.3          1 PLR501   0.0000
    11 O4P         -5.4860   -13.8710   -40.8200 O.3          1 PLR501   0.0000
    12 P           -5.9530   -13.5820   -42.2990 P.3          1 PLR501   0.0000
    13 O1P         -5.0260   -13.9930   -43.3840 O.co2        1 PLR501   0.0000
    14 O2P         -6.3230   -12.1720   -42.5060 O.co2        1 PLR501  -1.0000
    15 O3P         -7.2290   -14.2310   -42.6210 O.co2        1 PLR501  -1.0000
    16 H2A1        -2.4893   -10.6762   -35.7224 H            1 PLR501   0.0000
    17 H2A2        -0.9993   -11.0053   -36.3040 H            1 PLR501   0.0000
    18 H2A3        -1.8653    -9.7700   -36.9291 H            1 PLR501   0.0000
    19 H4          -3.8474   -11.4688   -35.3727 H            1 PLR501   0.0000
    20 H4A1        -5.7590   -14.4914   -38.7549 H            1 PLR501   0.0000
    21 H4A2        -5.3921   -14.5373   -37.1643 H            1 PLR501   0.0000
    22 H4A3        -6.2732   -13.2999   -37.7636 H            1 PLR501   0.0000
    23 H8          -1.9823   -12.7679   -40.5677 H            1 PLR501   0.0000
    24 H5A1        -4.1556   -15.1878   -40.1856 H            1 PLR501   0.0000
    25 H5A2        -3.6017   -14.1698   -41.3362 H            1 PLR501   0.0000
@<TRIPOS>BOND
     1    1    2      ar
     2    1    9      ar
     3    2    3       1
     4    2    4      ar
     5    4    5       1
     6    4    6      ar
     7    6    7       1
     8    6    8      ar
     9    8    9      ar
    10    8   10       1
    11   10   11       1
    12   11   12       1
    13   12   13      ar
    14   12   14      ar
    15   12   15      ar
    16    3   16       1
    17    3   17       1
    18    3   18       1
    19    5   19       1
    20    7   20       1
    21    7   21       1
    22    7   22       1
    23    9   23       1
    24   10   24       1
    25   10   25       1
@<TRIPOS>SUBSTRUCTURE
     1 PLR501      1 GROUP             4 B     PLR     0 **** PLR B 501
