@<TRIPOS>MOLECULE
3iqh_TYR_ASP_ILE_1_ligand
   55    55     3     0     0
SMALL
NO_CHARGES


@<TRIPOS>ATOM
     1 N           20.2970     3.5360    44.1210 N.4          1 TYR265   1.0000
     2 CA          19.4670     3.8070    42.9050 C.3          1 TYR265   0.0000
     3 C           18.4550     2.6850    42.6430 C.2          1 TYR265   0.0000
     4 O           18.6630     1.5370    43.0550 O.2          1 TYR265   0.0000
     5 CB          20.3460     4.0420    41.6630 C.3          1 TYR265   0.0000
     6 CG          21.3870     2.9590    41.4110 C.ar         1 TYR265   0.0000
     7 CD1         21.0550     1.7850    40.7180 C.ar         1 TYR265   0.0000
     8 CD2         22.7030     3.1060    41.8740 C.ar         1 TYR265   0.0000
     9 CE1         22.0060     0.7920    40.4910 C.ar         1 TYR265   0.0000
    10 CE2         23.6620     2.1130    41.6580 C.ar         1 TYR265   0.0000
    11 CZ          23.3020     0.9620    40.9700 C.ar         1 TYR265   0.0000
    12 OH          24.2390    -0.0150    40.7480 O.3          1 TYR265   0.0000
    13 H1          19.6975     3.3882    44.9076 H            1 TYR265   0.0000
    14 H2          20.8546     2.7200    43.9689 H            1 TYR265   0.0000
    15 HA          18.9504     4.6467    43.0728 H            1 TYR265   0.0000
    16 HB1         20.8234     4.9131    41.7786 H            1 TYR265   0.0000
    17 HB2         19.7485     4.0930    40.8628 H            1 TYR265   0.0000
    18 HD1         20.1217     1.6589    40.3818 H            1 TYR265   0.0000
    19 HD2         22.9596     3.9369    42.3678 H            1 TYR265   0.0000
    20 HE1         21.7594    -0.0363    39.9879 H            1 TYR265   0.0000
    21 HE2         24.5963     2.2299    41.9948 H            1 TYR265   0.0000
    22 HH          25.1719     0.1002    41.0891 H            1 TYR265   0.0000
    23 N           17.3650     3.0320    41.9510 N.am         2 ASP266   0.0000
    24 CA          16.2510     2.1160    41.6940 C.3          2 ASP266   0.0000
    25 C           16.1090     1.8090    40.1970 C.2          2 ASP266   0.0000
    26 O           15.1830     2.3040    39.5500 O.2          2 ASP266   0.0000
    27 CB          14.9300     2.6980    42.2520 C.3          2 ASP266   0.0000
    28 CG          14.9950     3.0120    43.7620 C.2          2 ASP266   0.0000
    29 OD1         15.8830     3.7790    44.2040 O.co2        2 ASP266   0.0000
    30 OD2         14.1310     2.5070    44.5090 O.co2        2 ASP266  -1.0000
    31 H11         17.3073     3.9631    41.5909 H            2 ASP266   0.0000
    32 H12         16.4383     1.2573    42.1710 H            2 ASP266   0.0000
    33 H13         14.1990     2.0335    42.0965 H            2 ASP266   0.0000
    34 H14         14.7221     3.5434    41.7600 H            2 ASP266   0.0000
    35 N           17.0040     0.9870    39.6510 N.am         3 ILE267   0.0000
    36 CA          17.0230     0.7600    38.1940 C.3          3 ILE267   0.0000
    37 C           16.7090    -0.6810    37.7510 C.2          3 ILE267   0.0000
    38 O           17.4310    -1.6500    38.0150 O.co2        3 ILE267   0.0000
    39 CB          18.3100     1.3370    37.5140 C.3          3 ILE267   0.0000
    40 CG1         18.4460     2.8430    37.8420 C.3          3 ILE267   0.0000
    41 CG2         18.2650     1.1100    36.0000 C.3          3 ILE267   0.0000
    42 CD1         19.7770     3.5150    37.4440 C.3          3 ILE267   0.0000
    43 OXT         15.6870    -0.8870    37.0990 O.co2        3 ILE267  -1.0000
    44 H15         17.6686     0.5199    40.2342 H            3 ILE267   0.0000
    45 H16         16.2701     1.3119    37.8353 H            3 ILE267   0.0000
    46 HB          19.1064     0.8582    37.8835 H            3 ILE267   0.0000
    47 HG11        18.3346     2.9504    38.8300 H            3 ILE267   0.0000
    48 HG12        17.7085     3.3251    37.3690 H            3 ILE267   0.0000
    49 HG21        19.0930     1.4839    35.5821 H            3 ILE267   0.0000
    50 HG22        18.2100     0.1295    35.8114 H            3 ILE267   0.0000
    51 HG23        17.4626     1.5684    35.6179 H            3 ILE267   0.0000
    52 HD11        19.7530     4.4808    37.7020 H            3 ILE267   0.0000
    53 HD12        20.5333     3.0624    37.9165 H            3 ILE267   0.0000
    54 HD13        19.9072     3.4372    36.4556 H            3 ILE267   0.0000
    55 H26         20.8933     4.3188    44.2988 H            3 ILE267   0.0000
@<TRIPOS>BOND
     1    1    2       1
     2    2    5       1
     3    2    3       1
     4    5    6       1
     5    6    7      ar
     6    6    8      ar
     7    7    9      ar
     8    9   11      ar
     9   11   12       1
    10   11   10      ar
    11   10    8      ar
    12    3    4       2
    13    1   13       1
    14    1   14       1
    15    2   15       1
    16    3   23      am
    17    5   16       1
    18    5   17       1
    19    7   18       1
    20    8   19       1
    21    9   20       1
    22   10   21       1
    23   12   22       1
    24   23   24       1
    25   24   27       1
    26   24   25       1
    27   27   28       1
    28   28   29      ar
    29   28   30      ar
    30   25   26       2
    31   27   34       1
    32   23   31       1
    33   24   32       1
    34   25   35      am
    35   27   33       1
    36   35   36       1
    37   36   39       1
    38   36   37       1
    39   39   41       1
    40   39   40       1
    41   40   42       1
    42   37   38      ar
    43   37   43      ar
    44   42   54       1
    45   35   44       1
    46   36   45       1
    47   39   46       1
    48   40   47       1
    49   40   48       1
    50   41   49       1
    51   41   50       1
    52   41   51       1
    53   42   52       1
    54   42   53       1
    55    1   55       1
@<TRIPOS>SUBSTRUCTURE
     1 TYR265      1 RESIDUE           4 P     TYR     0 **** TYR P 265
     2 ASP266     23 RESIDUE           4 P     ASP     0 **** ASP P 266
     3 ILE267     35 RESIDUE           4 P     ILE     0 **** ILE P 267
