@<TRIPOS>MOLECULE
4rvd_SAM_1_ligand
   50    52     1     0     0
SMALL
NO_CHARGES


@<TRIPOS>ATOM
     1 N          -26.7400    -0.7080     3.6480 N.4          1 SAM502   1.0000
     2 CA         -25.6730     0.2080     4.0280 C.3          1 SAM502   0.0000
     3 C          -24.7380    -0.4070     5.0460 C.2          1 SAM502   0.0000
     4 O          -25.0080    -1.5150     5.5620 O.co2        1 SAM502   0.0000
     5 OXT        -23.7130     0.2340     5.3560 O.co2        1 SAM502  -1.0000
     6 CB         -26.2460     1.5130     4.5880 C.3          1 SAM502   0.0000
     7 CG         -27.1810     1.2980     5.7840 C.3          1 SAM502   0.0000
     8 SD         -27.7490     2.7480     6.4080 S.3          1 SAM502   1.0000
     9 CE         -27.4710     2.7400     8.0560 C.3          1 SAM502   0.0000
    10 C5'        -29.3940     2.9330     6.1060 C.3          1 SAM502   0.0000
    11 C4'        -29.6440     3.1980     4.6150 C.3          1 SAM502   0.0000
    12 O4'        -30.9560     2.7570     4.2390 O.3          1 SAM502   0.0000
    13 C3'        -29.5550     4.6720     4.2100 C.3          1 SAM502   0.0000
    14 O3'        -28.7790     4.8190     3.0060 O.3          1 SAM502   0.0000
    15 C2'        -31.0010     5.0960     3.9900 C.3          1 SAM502   0.0000
    16 O2'        -31.1530     6.1240     3.0060 O.3          1 SAM502   0.0000
    17 C1'        -31.6380     3.8020     3.5320 C.3          1 SAM502   0.0000
    18 N9         -33.0780     3.6420     3.8250 N.pl3        1 SAM502   0.0000
    19 C8         -33.7500     4.0680     4.9090 C.2          1 SAM502   0.0000
    20 N7         -35.0450     3.6960     4.8330 N.2          1 SAM502   0.0000
    21 C5         -35.2140     3.0100     3.7020 C.ar         1 SAM502   0.0000
    22 C6         -36.3420     2.3390     3.0320 C.ar         1 SAM502   0.0000
    23 N6         -37.5610     2.3550     3.6110 N.pl3        1 SAM502   0.0000
    24 N1         -36.1110     1.7330     1.8450 N.ar         1 SAM502   0.0000
    25 C2         -34.8790     1.7360     1.2840 C.ar         1 SAM502   0.0000
    26 N3         -33.8030     2.3310     1.8490 N.ar         1 SAM502   0.0000
    27 C4         -33.9120     2.9700     3.0360 C.ar         1 SAM502   0.0000
    28 H1         -27.3348    -0.2666     2.9762 H            1 SAM502   0.0000
    29 H2         -26.3433    -1.5349     3.2496 H            1 SAM502   0.0000
    30 HA         -25.1426     0.4262     3.2089 H            1 SAM502   0.0000
    31 HB1        -26.7585     1.9723     3.8625 H            1 SAM502   0.0000
    32 HB2        -25.4864     2.0946     4.8790 H            1 SAM502   0.0000
    33 HG1        -26.6813     0.8119     6.5009 H            1 SAM502   0.0000
    34 HG2        -27.9610     0.7463     5.4887 H            1 SAM502   0.0000
    35 HE1        -27.8013     3.5959     8.4539 H            1 SAM502   0.0000
    36 HE2        -27.9552     1.9702     8.4720 H            1 SAM502   0.0000
    37 HE3        -26.4901     2.6491     8.2281 H            1 SAM502   0.0000
    38 H5'1       -29.7412     3.7043     6.6395 H            1 SAM502   0.0000
    39 H5'2       -29.8735     2.0981     6.3762 H            1 SAM502   0.0000
    40 H4'        -28.9717     2.6821     4.0841 H            1 SAM502   0.0000
    41 H3'        -29.1479     5.2081     4.9495 H            1 SAM502   0.0000
    42 H15        -29.2117     4.3046     2.2656 H            1 SAM502   0.0000
    43 H2'        -31.4067     5.3890     4.8558 H            1 SAM502   0.0000
    44 H17        -30.7999     5.8001     2.1283 H            1 SAM502   0.0000
    45 H1'        -31.4866     3.6892     2.5500 H            1 SAM502   0.0000
    46 H19        -33.3477     4.5864     5.6636 H            1 SAM502   0.0000
    47 H20        -38.3327     1.9025     3.1642 H            1 SAM502   0.0000
    48 H21        -37.6925     2.8194     4.4868 H            1 SAM502   0.0000
    49 H22        -34.7577     1.2740     0.4055 H            1 SAM502   0.0000
    50 H23        -27.2745    -0.9513     4.4574 H            1 SAM502   0.0000
@<TRIPOS>BOND
     1    1    2       1
     2    2    3       1
     3    2    6       1
     4    3    4      ar
     5    3    5      ar
     6    6    7       1
     7    7    8       1
     8    8    9       1
     9    8   10       1
    10   10   11       1
    11   11   12       1
    12   11   13       1
    13   12   17       1
    14   13   14       1
    15   13   15       1
    16   15   16       1
    17   15   17       1
    18   17   18       1
    19   18   19       1
    20   18   27       1
    21   19   20       2
    22   20   21       1
    23   21   22      ar
    24   21   27      ar
    25   22   23       1
    26   22   24      ar
    27   24   25      ar
    28   25   26      ar
    29   26   27      ar
    30    1   28       1
    31    1   29       1
    32    2   30       1
    33    1   50       1
    34    6   31       1
    35    6   32       1
    36    7   33       1
    37    7   34       1
    38    9   35       1
    39    9   36       1
    40    9   37       1
    41   10   38       1
    42   10   39       1
    43   11   40       1
    44   13   41       1
    45   14   42       1
    46   15   43       1
    47   16   44       1
    48   17   45       1
    49   19   46       1
    50   23   47       1
    51   23   48       1
    52   25   49       1
@<TRIPOS>SUBSTRUCTURE
     1 SAM502      1 GROUP             4 A     SAM     0 **** SAM A 502
