@<TRIPOS>MOLECULE
1ngc_ADP_1_ligand
   39    41     1     0     0
SMALL
NO_CHARGES


@<TRIPOS>ATOM
     1 PB          18.0870    29.4390    16.4140 P.3          1 ADP486   0.0000
     2 O1B         18.4670    29.3620    17.8490 O.co2        1 ADP486   0.0000
     3 O2B         18.6580    28.3690    15.6050 O.co2        1 ADP486  -1.0000
     4 O3B         16.6380    29.6360    16.1720 O.co2        1 ADP486  -1.0000
     5 PA          19.7520    31.6020    15.2750 P.3          1 ADP486   0.0000
     6 O1A         20.9280    30.7240    15.4550 O.co2        1 ADP486   0.0000
     7 O2A         19.4440    32.1040    13.9290 O.co2        1 ADP486  -1.0000
     8 O3A         18.5380    30.8740    15.9190 O.3          1 ADP486   0.0000
     9 O5'         19.9420    32.8110    16.2060 O.3          1 ADP486   0.0000
    10 C5'         19.0150    33.8370    16.3070 C.3          1 ADP486   0.0000
    11 C4'         19.5490    34.7850    17.3350 C.3          1 ADP486   0.0000
    12 O4'         20.7130    35.3140    16.7500 O.3          1 ADP486   0.0000
    13 C3'         18.6350    35.9860    17.7050 C.3          1 ADP486   0.0000
    14 O3'         18.7210    36.0390    19.1510 O.3          1 ADP486   0.0000
    15 C2'         19.2550    37.1590    16.9610 C.3          1 ADP486   0.0000
    16 O2'         19.0970    38.3960    17.6760 O.3          1 ADP486   0.0000
    17 C1'         20.7100    36.7090    17.0500 C.3          1 ADP486   0.0000
    18 N9          21.5760    37.4650    16.1170 N.pl3        1 ADP486   0.0000
    19 C8          21.5970    37.5550    14.7360 C.2          1 ADP486   0.0000
    20 N7          22.5340    38.3620    14.2630 N.2          1 ADP486   0.0000
    21 C5          23.1600    38.8170    15.4330 C.ar         1 ADP486   0.0000
    22 C6          24.2190    39.6970    15.6590 C.ar         1 ADP486   0.0000
    23 N6          24.7800    40.3610    14.6720 N.pl3        1 ADP486   0.0000
    24 N1          24.6000    39.9270    16.9190 N.ar         1 ADP486   0.0000
    25 C2          23.9670    39.3290    17.8830 C.ar         1 ADP486   0.0000
    26 N3          22.9460    38.4910    17.8190 N.ar         1 ADP486   0.0000
    27 C4          22.5870    38.2740    16.5410 C.ar         1 ADP486   0.0000
    28 H5'1        18.1286    33.4757    16.5963 H            1 ADP486   0.0000
    29 H5'2        18.9146    34.3010    15.4269 H            1 ADP486   0.0000
    30 H4'         19.7902    34.2798    18.1636 H            1 ADP486   0.0000
    31 H3'         17.6940    35.8274    17.4062 H            1 ADP486   0.0000
    32 H5          18.1576    36.7919    19.4911 H            1 ADP486   0.0000
    33 H2'         18.9338    37.2224    16.0161 H            1 ADP486   0.0000
    34 H7          18.5800    39.0419    17.1144 H            1 ADP486   0.0000
    35 H1'         21.0385    36.8441    17.9848 H            1 ADP486   0.0000
    36 H9          20.9612    37.0551    14.1479 H            1 ADP486   0.0000
    37 H10         25.5379    40.9865    14.8573 H            1 ADP486   0.0000
    38 H11         24.4487    40.2403    13.7362 H            1 ADP486   0.0000
    39 H12         24.2990    39.5311    18.8044 H            1 ADP486   0.0000
@<TRIPOS>BOND
     1    1    2      ar
     2    1    3      ar
     3    1    4      ar
     4    1    8       1
     5    5    6      ar
     6    5    7      ar
     7    5    8       1
     8    5    9       1
     9    9   10       1
    10   10   11       1
    11   11   12       1
    12   11   13       1
    13   12   17       1
    14   13   14       1
    15   13   15       1
    16   15   16       1
    17   15   17       1
    18   17   18       1
    19   18   19       1
    20   18   27       1
    21   19   20       2
    22   20   21       1
    23   21   22      ar
    24   21   27      ar
    25   22   23       1
    26   22   24      ar
    27   24   25      ar
    28   25   26      ar
    29   26   27      ar
    30   25   39       1
    31   23   38       1
    32   23   37       1
    33   10   28       1
    34   10   29       1
    35   11   30       1
    36   13   31       1
    37   14   32       1
    38   15   33       1
    39   16   34       1
    40   17   35       1
    41   19   36       1
@<TRIPOS>SUBSTRUCTURE
     1 ADP486      1 GROUP             4 A     ADP     0 **** ADP A 486
