@<TRIPOS>MOLECULE
2ph5_NAD_1_ligand
   70    74     1     0     0
SMALL
NO_CHARGES


@<TRIPOS>ATOM
     1 PA         -29.2610    88.5530    35.8460 P.3          1 NAD501   0.0000
     2 O1A        -30.0350    89.4850    36.7380 O.co2        1 NAD501   0.0000
     3 O2A        -30.0050    87.4610    35.1600 O.co2        1 NAD501  -1.0000
     4 O5B        -28.0300    87.8770    36.6570 O.3          1 NAD501   0.0000
     5 C5B        -27.1700    88.6770    37.4640 C.3          1 NAD501   0.0000
     6 C4B        -26.5560    87.7770    38.5530 C.3          1 NAD501   0.0000
     7 O4B        -25.7520    88.6220    39.3470 O.3          1 NAD501   0.0000
     8 C3B        -27.5760    87.1150    39.4850 C.3          1 NAD501   0.0000
     9 O3B        -27.3800    85.6990    39.5090 O.3          1 NAD501   0.0000
    10 C2B        -27.3180    87.7450    40.8250 C.3          1 NAD501   0.0000
    11 O2B        -27.5610    86.9150    41.9380 O.3          1 NAD501   0.0000
    12 C1B        -25.8790    88.2490    40.7040 C.3          1 NAD501   0.0000
    13 N9A        -25.5480    89.4310    41.5090 N.pl3        1 NAD501   0.0000
    14 C8A        -26.4630    90.4450    41.8420 C.2          1 NAD501   0.0000
    15 N7A        -26.2440    90.9210    43.0840 N.2          1 NAD501   0.0000
    16 C5A        -25.2000    90.2190    43.5810 C.ar         1 NAD501   0.0000
    17 C6A        -24.5410    90.2870    44.8080 C.ar         1 NAD501   0.0000
    18 N6A        -24.8590    91.1490    45.7750 N.pl3        1 NAD501   0.0000
    19 N1A        -23.4900    89.4030    45.0080 N.ar         1 NAD501   0.0000
    20 C2A        -23.0990    88.4880    44.0510 C.ar         1 NAD501   0.0000
    21 N3A        -23.7280    88.4080    42.8310 N.ar         1 NAD501   0.0000
    22 C4A        -24.7610    89.2790    42.6340 C.ar         1 NAD501   0.0000
    23 O3         -28.6250    89.4860    34.7380 O.3          1 NAD501   0.0000
    24 PN         -27.6190    89.2130    33.5180 P.3          1 NAD501   0.0000
    25 O1N        -28.2040    89.8610    32.3200 O.co2        1 NAD501   0.0000
    26 O2N        -27.3230    87.7370    33.4800 O.co2        1 NAD501  -1.0000
    27 O5D        -26.4520    90.0740    34.1560 O.3          1 NAD501   0.0000
    28 C5D        -25.1930    90.3190    33.5810 C.3          1 NAD501   0.0000
    29 C4D        -25.3060    91.6960    32.9610 C.3          1 NAD501   0.0000
    30 O4D        -24.9230    91.6220    31.6140 O.3          1 NAD501   0.0000
    31 C3D        -25.7520    93.1170    33.2370 C.3          1 NAD501   0.0000
    32 O3D        -24.7290    93.8750    33.8630 O.3          1 NAD501   0.0000
    33 C2D        -26.0930    93.6110    31.8420 C.3          1 NAD501   0.0000
    34 O2D        -26.0600    95.0040    31.7160 O.3          1 NAD501   0.0000
    35 C1D        -25.0950    92.8670    30.9630 C.3          1 NAD501   0.0000
    36 N1N        -25.5470    92.5050    29.5990 N.ar         1 NAD501   1.0000
    37 C2N        -24.8620    92.9650    28.4970 C.ar         1 NAD501   0.0000
    38 C3N        -25.3210    92.5700    27.2220 C.ar         1 NAD501   0.0000
    39 C7N        -24.6350    93.0060    25.9740 C.2          1 NAD501   0.0000
    40 O7N        -25.1470    92.5550    24.7840 O.2          1 NAD501   0.0000
    41 N7N        -23.5630    93.7700    25.9760 N.am         1 NAD501   0.0000
    42 C4N        -26.4630    91.7190    27.0750 C.ar         1 NAD501   0.0000
    43 C5N        -27.1370    91.2750    28.2320 C.ar         1 NAD501   0.0000
    44 C6N        -26.6940    91.6540    29.4850 C.ar         1 NAD501   0.0000
    45 H5B1       -27.6947    89.4139    37.8902 H            1 NAD501   0.0000
    46 H5B2       -26.4435    89.0685    36.8993 H            1 NAD501   0.0000
    47 H4B        -25.9859    87.0749    38.1263 H            1 NAD501   0.0000
    48 H3B        -28.5048    87.3265    39.1808 H            1 NAD501   0.0000
    49 H5         -27.1746    85.4067    40.4430 H            1 NAD501   0.0000
    50 H2B        -27.9142    88.5438    40.9054 H            1 NAD501   0.0000
    51 H7         -28.5112    87.0204    42.2313 H            1 NAD501   0.0000
    52 H1B        -25.2415    87.5074    40.9127 H            1 NAD501   0.0000
    53 H8A        -27.1860    90.7723    41.2336 H            1 NAD501   0.0000
    54 H6A1       -24.3471    91.1479    46.6341 H            1 NAD501   0.0000
    55 H6A2       -25.6093    91.7964    45.6409 H            1 NAD501   0.0000
    56 H2A        -22.3398    87.8683    44.2500 H            1 NAD501   0.0000
    57 H5D1       -24.9869    89.6346    32.8816 H            1 NAD501   0.0000
    58 H5D2       -24.4786    90.3062    34.2807 H            1 NAD501   0.0000
    59 H4D        -24.3698    91.9167    33.2346 H            1 NAD501   0.0000
    60 H3D        -26.5727    93.1129    33.8083 H            1 NAD501   0.0000
    61 H17        -24.4824    93.4477    34.7328 H            1 NAD501   0.0000
    62 H2D        -27.0134    93.2950    31.6116 H            1 NAD501   0.0000
    63 H19        -26.2992    95.4237    32.5916 H            1 NAD501   0.0000
    64 H1D        -24.2275    93.3628    30.9231 H            1 NAD501   0.0000
    65 H2N        -24.0645    93.5601    28.5967 H            1 NAD501   0.0000
    66 H7N1       -23.1374    94.0366    25.1112 H            1 NAD501   0.0000
    67 H7N2       -23.1742    94.0837    26.8423 H            1 NAD501   0.0000
    68 H4N        -26.7778    91.4438    26.1666 H            1 NAD501   0.0000
    69 H5N        -27.9387    90.6836    28.1451 H            1 NAD501   0.0000
    70 H6N        -27.1700    91.3369    30.3053 H            1 NAD501   0.0000
@<TRIPOS>BOND
     1    1    2      ar
     2    1    3      ar
     3    1    4       1
     4    1   23       1
     5    4    5       1
     6    5    6       1
     7    6    7       1
     8    6    8       1
     9    7   12       1
    10    8    9       1
    11    8   10       1
    12   10   11       1
    13   10   12       1
    14   12   13       1
    15   13   14       1
    16   13   22       1
    17   14   15       2
    18   15   16       1
    19   16   17      ar
    20   16   22      ar
    21   17   18       1
    22   17   19      ar
    23   19   20      ar
    24   20   21      ar
    25   21   22      ar
    26   23   24       1
    27   24   25      ar
    28   24   26      ar
    29   24   27       1
    30   27   28       1
    31   28   29       1
    32   29   30       1
    33   29   31       1
    34   30   35       1
    35   31   32       1
    36   31   33       1
    37   33   34       1
    38   33   35       1
    39   35   36       1
    40   36   37      ar
    41   36   44      ar
    42   37   38      ar
    43   38   39       1
    44   38   42      ar
    45   39   40       2
    46   39   41      am
    47   42   43      ar
    48   43   44      ar
    49   44   70       1
    50    5   45       1
    51    5   46       1
    52    6   47       1
    53    8   48       1
    54    9   49       1
    55   10   50       1
    56   11   51       1
    57   12   52       1
    58   14   53       1
    59   18   54       1
    60   18   55       1
    61   20   56       1
    62   43   69       1
    63   28   57       1
    64   28   58       1
    65   29   59       1
    66   31   60       1
    67   32   61       1
    68   33   62       1
    69   34   63       1
    70   35   64       1
    71   37   65       1
    72   41   66       1
    73   41   67       1
    74   42   68       1
@<TRIPOS>SUBSTRUCTURE
     1 NAD501      1 GROUP             4 A     NAD     0 **** NAD A 501
