@<TRIPOS>MOLECULE
2v5u_FMN_2_ligand
   50    52     1     0     0
SMALL
NO_CHARGES


@<TRIPOS>ATOM
     1 N1           5.7330   -12.9420   -19.9910 N.2          1 FMN1170   0.0000
     2 C2           6.3170   -13.5870   -21.0190 C.2          1 FMN1170   0.0000
     3 O2           7.5930   -13.4900   -21.1700 O.2          1 FMN1170   0.0000
     4 N3           5.4940   -14.2930   -21.9060 N.pl3        1 FMN1170   0.0000
     5 C4           4.1420   -14.3740   -21.7640 C.2          1 FMN1170   0.0000
     6 O4           3.4860   -14.8350   -22.7030 O.2          1 FMN1170   0.0000
     7 C4A          3.5570   -13.6920   -20.7090 C.2          1 FMN1170   0.0000
     8 N5           2.1750   -13.7500   -20.5520 N.2          1 FMN1170   0.0000
     9 C5A          1.5810   -13.1340   -19.4740 C.ar         1 FMN1170   0.0000
    10 C6           0.1940   -13.2530   -19.3480 C.ar         1 FMN1170   0.0000
    11 C7          -0.3910   -12.6490   -18.2570 C.ar         1 FMN1170   0.0000
    12 C7M         -1.7720   -13.1860   -17.9560 C.3          1 FMN1170   0.0000
    13 C8           0.3340   -11.8850   -17.3300 C.ar         1 FMN1170   0.0000
    14 C8M         -0.2580   -11.3240   -16.0370 C.3          1 FMN1170   0.0000
    15 C9           1.7000   -11.7570   -17.4500 C.ar         1 FMN1170   0.0000
    16 C9A          2.3420   -12.3870   -18.5260 C.ar         1 FMN1170   0.0000
    17 N10          3.7190   -12.2780   -18.6920 N.pl3        1 FMN1170   0.0000
    18 C10          4.3410   -12.9650   -19.7850 C.2          1 FMN1170   0.0000
    19 C1'          4.4870   -11.4300   -17.7420 C.3          1 FMN1170   0.0000
    20 C2'          4.5670    -9.9620   -18.1570 C.3          1 FMN1170   0.0000
    21 O2'          5.2630    -9.8560   -19.3920 O.3          1 FMN1170   0.0000
    22 C3'          5.4150    -9.3950   -17.0530 C.3          1 FMN1170   0.0000
    23 O3'          4.6290    -9.4250   -15.8890 O.3          1 FMN1170   0.0000
    24 C4'          5.9170    -8.0150   -17.3560 C.3          1 FMN1170   0.0000
    25 O4'          6.6390    -7.5960   -16.2180 O.3          1 FMN1170   0.0000
    26 C5'          4.8050    -7.0490   -17.6400 C.3          1 FMN1170   0.0000
    27 O5'          5.3930    -5.8310   -17.9600 O.3          1 FMN1170   0.0000
    28 P            4.5330    -4.4980   -17.9730 P.3          1 FMN1170   0.0000
    29 O1P          3.2470    -4.7200   -18.7170 O.co2        1 FMN1170   0.0000
    30 O2P          4.3620    -4.1420   -16.5770 O.co2        1 FMN1170  -1.0000
    31 O3P          5.4490    -3.5290   -18.6560 O.co2        1 FMN1170  -1.0000
    32 H1           5.9199   -14.7601   -22.6809 H            1 FMN1170   0.0000
    33 H2          -0.3499   -13.7548   -20.0206 H            1 FMN1170   0.0000
    34 H7M1        -2.1467   -12.7137   -17.1582 H            1 FMN1170   0.0000
    35 H7M2        -2.3681   -13.0333   -18.7442 H            1 FMN1170   0.0000
    36 H7M3        -1.7145   -14.1662   -17.7665 H            1 FMN1170   0.0000
    37 H8M1         0.4461   -10.8157   -15.5411 H            1 FMN1170   0.0000
    38 H8M2        -1.0183   -10.7126   -16.2563 H            1 FMN1170   0.0000
    39 H8M3        -0.5890   -12.0767   -15.4679 H            1 FMN1170   0.0000
    40 H9           2.2233   -11.2258   -16.7837 H            1 FMN1170   0.0000
    41 H1'1         5.4173   -11.7911   -17.6774 H            1 FMN1170   0.0000
    42 H1'2         4.0465   -11.4813   -16.8457 H            1 FMN1170   0.0000
    43 H2'          3.6647    -9.5328   -18.1961 H            1 FMN1170   0.0000
    44 H13          4.6116    -9.9187   -20.1482 H            1 FMN1170   0.0000
    45 H3'          6.2029    -9.9960   -16.9185 H            1 FMN1170   0.0000
    46 H15          5.0779    -9.9918   -15.1982 H            1 FMN1170   0.0000
    47 H4'          6.5324    -8.0521   -18.1433 H            1 FMN1170   0.0000
    48 H17          6.9970    -6.6749   -16.3709 H            1 FMN1170   0.0000
    49 H5'1         4.2241    -6.9477   -16.8324 H            1 FMN1170   0.0000
    50 H5'2         4.2542    -7.3762   -18.4079 H            1 FMN1170   0.0000
@<TRIPOS>BOND
     1    1    2       1
     2    1   18       2
     3    2    3       2
     4    2    4       1
     5    4    5       1
     6    5    6       2
     7    5    7       1
     8    7    8       2
     9    7   18       1
    10    8    9       1
    11    9   10      ar
    12    9   16      ar
    13   10   11      ar
    14   11   12       1
    15   11   13      ar
    16   13   14       1
    17   13   15      ar
    18   15   16      ar
    19   16   17       1
    20   17   18       1
    21   17   19       1
    22   19   20       1
    23   20   21       1
    24   20   22       1
    25   22   23       1
    26   22   24       1
    27   24   25       1
    28   24   26       1
    29   26   27       1
    30   27   28       1
    31   28   29      ar
    32   28   30      ar
    33   28   31      ar
    34    4   32       1
    35   10   33       1
    36   12   34       1
    37   12   35       1
    38   12   36       1
    39   14   37       1
    40   14   38       1
    41   14   39       1
    42   15   40       1
    43   19   41       1
    44   19   42       1
    45   20   43       1
    46   21   44       1
    47   22   45       1
    48   23   46       1
    49   24   47       1
    50   25   48       1
    51   26   49       1
    52   26   50       1
@<TRIPOS>SUBSTRUCTURE
     1 FMN1170     1 GROUP             4 B     FMN     0 **** FMN B1170
