@<TRIPOS>MOLECULE
4js1_CTN_1_ligand
   30    31     1     0     0
SMALL
NO_CHARGES


@<TRIPOS>ATOM
     1 O5'          5.4850    50.6940    36.7980 O.3          1 CTN510   0.0000
     2 C5'          5.3270    49.2880    36.9220 C.3          1 CTN510   0.0000
     3 C4'          3.8690    48.9120    36.9970 C.3          1 CTN510   0.0000
     4 O4'          3.4410    48.9610    38.3740 O.3          1 CTN510   0.0000
     5 C1'          2.0880    49.3590    38.4510 C.3          1 CTN510   0.0000
     6 N1           2.0030    50.5320    39.3300 N.pl3        1 CTN510   0.0000
     7 C6           3.0500    51.4820    39.3330 C.2          1 CTN510   0.0000
     8 C5           3.0080    52.4610    40.2590 C.2          1 CTN510   0.0000
     9 C4           1.8960    52.4830    41.1600 C.2          1 CTN510   0.0000
    10 N3           0.9070    51.6240    41.1250 N.2          1 CTN510   0.0000
    11 C2           0.8750    50.6520    40.1850 C.2          1 CTN510   0.0000
    12 O2          -0.0890    49.8580    40.0300 O.2          1 CTN510   0.0000
    13 N4           1.8580    53.4650    42.1370 N.pl3        1 CTN510   0.0000
    14 C2'          1.5940    49.6480    37.0330 C.3          1 CTN510   0.0000
    15 O2'          0.9200    48.4870    36.5640 O.3          1 CTN510   0.0000
    16 C3'          2.9000    49.8340    36.2700 C.3          1 CTN510   0.0000
    17 O3'          2.7760    49.4750    34.9190 O.3          1 CTN510   0.0000
    18 H5'          5.0298    51.0084    35.9650 H            1 CTN510   0.0000
    19 H5'1         5.7874    48.9795    37.7544 H            1 CTN510   0.0000
    20 H5'2         5.7393    48.8414    36.1279 H            1 CTN510   0.0000
    21 H4'          3.7540    47.9803    36.6523 H            1 CTN510   0.0000
    22 H1'          1.5475    48.6143    38.8426 H            1 CTN510   0.0000
    23 H6           3.7970    51.4296    38.6702 H            1 CTN510   0.0000
    24 H7           3.7307    53.1499    40.3146 H            1 CTN510   0.0000
    25 H8           1.0921    53.5023    42.7789 H            1 CTN510   0.0000
    26 H9           2.5965    54.1363    42.2001 H            1 CTN510   0.0000
    27 H2'          1.0148    50.4623    36.9938 H            1 CTN510   0.0000
    28 H11          0.5852    48.6481    35.6356 H            1 CTN510   0.0000
    29 H3'          3.2082    50.7823    36.3452 H            1 CTN510   0.0000
    30 H13          3.4595    49.9666    34.3794 H            1 CTN510   0.0000
@<TRIPOS>BOND
     1    1    2       1
     2    2    3       1
     3    3    4       1
     4    3   16       1
     5    4    5       1
     6    5    6       1
     7    5   14       1
     8    6    7       1
     9    6   11       1
    10    7    8       2
    11    8    9       1
    12    9   10       2
    13    9   13       1
    14   10   11       1
    15   11   12       2
    16   14   15       1
    17   14   16       1
    18   16   17       1
    19    1   18       1
    20    2   19       1
    21    2   20       1
    22    3   21       1
    23    5   22       1
    24    7   23       1
    25    8   24       1
    26   13   25       1
    27   13   26       1
    28   14   27       1
    29   15   28       1
    30   16   29       1
    31   17   30       1
@<TRIPOS>SUBSTRUCTURE
     1 CTN510      1 GROUP             4 A     CTN     0 **** CTN A 510
