@<TRIPOS>MOLECULE
3r6s_CMP_5_ligand
   34    37     1     0     0
SMALL
NO_CHARGES


@<TRIPOS>ATOM
     1 P           16.0160    40.9980   -36.9570 P.3          1 CMP301   0.0000
     2 O1P         15.1290    39.8190   -37.1210 O.3          1 CMP301   0.0000
     3 O2P         17.3370    41.0440   -37.6150 O.2          1 CMP301   0.0000
     4 O5'         15.1340    42.3380   -37.4090 O.3          1 CMP301   0.0000
     5 C5'         13.9020    42.6230   -36.7170 C.3          1 CMP301   0.0000
     6 C4'         14.3210    42.9030   -35.3520 C.3          1 CMP301   0.0000
     7 O4'         13.2770    43.2290   -34.4500 O.3          1 CMP301   0.0000
     8 C3'         14.9240    41.6190   -34.7770 C.3          1 CMP301   0.0000
     9 O3'         16.1660    41.4220   -35.4070 O.3          1 CMP301   0.0000
    10 C2'         15.0140    41.8970   -33.2680 C.3          1 CMP301   0.0000
    11 O2'         16.0600    42.7910   -32.9230 O.3          1 CMP301   0.0000
    12 C1'         13.7440    42.7230   -33.0810 C.3          1 CMP301   0.0000
    13 N9          12.6590    41.9460   -32.5350 N.pl3        1 CMP301   0.0000
    14 C8          11.9760    40.9930   -33.1540 C.2          1 CMP301   0.0000
    15 N7          11.0260    40.5380   -32.3380 N.2          1 CMP301   0.0000
    16 C5          11.1110    41.2410   -31.2130 C.ar         1 CMP301   0.0000
    17 C6          10.3850    41.2210   -30.0190 C.ar         1 CMP301   0.0000
    18 N6           9.3780    40.3360   -29.8900 N.pl3        1 CMP301   0.0000
    19 N1          10.7210    42.0830   -29.0250 N.ar         1 CMP301   0.0000
    20 C2          11.7370    42.9400   -29.1970 C.ar         1 CMP301   0.0000
    21 N3          12.4650    42.9580   -30.3340 N.ar         1 CMP301   0.0000
    22 C4          12.1530    42.1360   -31.3450 C.ar         1 CMP301   0.0000
    23 H1P         15.6857    38.9992   -37.2551 H            1 CMP301   0.0000
    24 H5'1        13.2878    41.8344   -36.7455 H            1 CMP301   0.0000
    25 H5'2        13.4445    43.4166   -37.1181 H            1 CMP301   0.0000
    26 H4'         15.0081    43.6295   -35.3512 H            1 CMP301   0.0000
    27 H3'         14.3188    40.8424   -34.9517 H            1 CMP301   0.0000
    28 H2'         15.0191    41.0617   -32.7183 H            1 CMP301   0.0000
    29 H7          16.6970    42.3348   -32.3016 H            1 CMP301   0.0000
    30 H1'         13.9344    43.5011   -32.4824 H            1 CMP301   0.0000
    31 H9          12.1465    40.6678   -34.0842 H            1 CMP301   0.0000
    32 H10          8.8454    40.3044   -29.0442 H            1 CMP301   0.0000
    33 H11          9.1629    39.7105   -30.6400 H            1 CMP301   0.0000
    34 H12         11.9617    43.5826   -28.4645 H            1 CMP301   0.0000
@<TRIPOS>BOND
     1    1    2       1
     2    1    3       2
     3    1    4       1
     4    1    9       1
     5    4    5       1
     6    5    6       1
     7    6    7       1
     8    6    8       1
     9    7   12       1
    10    8    9       1
    11    8   10       1
    12   10   11       1
    13   10   12       1
    14   12   13       1
    15   13   14       1
    16   13   22       1
    17   14   15       2
    18   15   16       1
    19   16   17      ar
    20   16   22      ar
    21   17   18       1
    22   17   19      ar
    23   19   20      ar
    24   20   21      ar
    25   21   22      ar
    26    2   23       1
    27    5   24       1
    28    5   25       1
    29    6   26       1
    30    8   27       1
    31   10   28       1
    32   11   29       1
    33   12   30       1
    34   14   31       1
    35   18   32       1
    36   18   33       1
    37   20   34       1
@<TRIPOS>SUBSTRUCTURE
     1 CMP301      1 GROUP             4 E     CMP     0 **** CMP E 301
