@<TRIPOS>MOLECULE
1kap_GLY_SER_ASN_SER_1_ligand
   46    45     4     0     0
SMALL
NO_CHARGES


@<TRIPOS>ATOM
     1 N          -10.9010    23.4700   -25.8330 N.4          1 GLY751   1.0000
     2 CA         -11.3430    23.8190   -27.2180 C.3          1 GLY751   0.0000
     3 C          -11.8140    25.2590   -27.2690 C.2          1 GLY751   0.0000
     4 O          -12.7740    25.5860   -27.9790 O.2          1 GLY751   0.0000
     5 H1         -11.0588    22.4964   -25.6681 H            1 GLY751   0.0000
     6 H2          -9.9265    23.6713   -25.7334 H            1 GLY751   0.0000
     7 HA1        -12.0940    23.2160   -27.4870 H            1 GLY751   0.0000
     8 HA2        -10.5768    23.6993   -27.8494 H            1 GLY751   0.0000
     9 N          -11.0860    26.1150   -26.5500 N.am         2 SER752   0.0000
    10 CA         -11.3760    27.5400   -26.4370 C.3          2 SER752   0.0000
    11 C          -12.4760    27.7480   -25.3940 C.2          2 SER752   0.0000
    12 O          -13.6690    27.7690   -25.7050 O.2          2 SER752   0.0000
    13 CB         -11.7660    28.1650   -27.7930 C.3          2 SER752   0.0000
    14 OG         -11.8200    29.5850   -27.7320 O.3          2 SER752   0.0000
    15 H5         -10.2922    25.7575   -26.0580 H            2 SER752   0.0000
    16 HA         -10.5496    27.9991   -26.1109 H            2 SER752   0.0000
    17 HB1        -12.6654    27.8193   -28.0606 H            2 SER752   0.0000
    18 HB2        -11.0886    27.8972   -28.4782 H            2 SER752   0.0000
    19 HG         -12.0753    29.9477   -28.6283 H            2 SER752   0.0000
    20 N          -12.0670    27.7620   -24.1340 N.am         3 ASN753   0.0000
    21 CA         -12.9990    28.0170   -23.0530 C.3          3 ASN753   0.0000
    22 C          -12.7760    29.4790   -22.7440 C.2          3 ASN753   0.0000
    23 O          -11.6400    29.8750   -22.4530 O.2          3 ASN753   0.0000
    24 CB         -12.6590    27.1820   -21.8160 C.3          3 ASN753   0.0000
    25 CG         -13.6350    26.0600   -21.5960 C.2          3 ASN753   0.0000
    26 OD1        -14.7700    26.2860   -21.1570 O.2          3 ASN753   0.0000
    27 ND2        -13.2090    24.8350   -21.8970 N.am         3 ASN753   0.0000
    28 H10        -11.1033    27.5946   -23.9259 H            3 ASN753   0.0000
    29 H11        -13.9407    27.8534   -23.3469 H            3 ASN753   0.0000
    30 H12        -12.6690    27.7783   -21.0133 H            3 ASN753   0.0000
    31 H13        -11.7446    26.7941   -21.9318 H            3 ASN753   0.0000
    32 HD21       -13.8152    24.0498   -21.7709 H            3 ASN753   0.0000
    33 HD22       -12.2828    24.7002   -22.2492 H            3 ASN753   0.0000
    34 N          -13.8160    30.2900   -22.9040 N.am         4 SER754   0.0000
    35 CA         -13.7080    31.7030   -22.5950 C.3          4 SER754   0.0000
    36 C          -13.8790    31.8210   -21.0710 C.2          4 SER754   0.0000
    37 O          -15.0060    31.6510   -20.5700 O.co2        4 SER754   0.0000
    38 CB         -14.7750    32.5020   -23.3540 C.3          4 SER754   0.0000
    39 OG         -14.6260    32.3400   -24.7670 O.3          4 SER754   0.0000
    40 OXT        -12.8590    31.9420   -20.3620 O.co2        4 SER754  -1.0000
    41 H16        -14.6827    29.9223   -23.2411 H            4 SER754   0.0000
    42 H17        -12.7997    32.0315   -22.8541 H            4 SER754   0.0000
    43 H18        -14.6834    33.4709   -23.1242 H            4 SER754   0.0000
    44 H19        -15.6813    32.1790   -23.0813 H            4 SER754   0.0000
    45 H20        -15.3311    32.8689   -25.2393 H            4 SER754   0.0000
    46 H21        -11.4220    24.0089   -25.1711 H            4 SER754   0.0000
@<TRIPOS>BOND
     1    1    2       1
     2    2    3       1
     3    3    4       2
     4    1    5       1
     5    1    6       1
     6    2    7       1
     7    2    8       1
     8    3    9      am
     9    9   10       1
    10   10   13       1
    11   10   11       1
    12   13   14       1
    13   11   12       2
    14   14   19       1
    15    9   15       1
    16   10   16       1
    17   11   20      am
    18   13   17       1
    19   13   18       1
    20   20   21       1
    21   21   24       1
    22   21   22       1
    23   24   25       1
    24   25   26       2
    25   25   27      am
    26   22   23       2
    27   27   33       1
    28   20   28       1
    29   21   29       1
    30   22   34      am
    31   24   30       1
    32   24   31       1
    33   27   32       1
    34   34   35       1
    35   35   38       1
    36   35   36       1
    37   38   39       1
    38   36   37      ar
    39   36   40      ar
    40   39   45       1
    41   34   41       1
    42   35   42       1
    43   38   43       1
    44   38   44       1
    45    1   46       1
@<TRIPOS>SUBSTRUCTURE
     1 GLY751      1 RESIDUE           4 I     GLY     0 **** GLY I 751
     2 SER752      9 RESIDUE           4 I     SER     0 **** SER I 752
     3 ASN753     20 RESIDUE           4 I     ASN     0 **** ASN I 753
     4 SER754     34 RESIDUE           4 I     SER     0 **** SER I 754
