@<TRIPOS>MOLECULE
./coach420/1bs1/ligand.pdb
 46 43 0 0 0
SMALL
GASTEIGER

@<TRIPOS>ATOM
      1 MG          3.3140   23.8500   14.1020 Mg    901  MG901       0.0000
      2  O1B        4.1570   24.2740    9.8650 O.3   802  ADP802      0.0000
      3  O2B        4.2070   23.5510   12.3920 O.3   802  ADP802      0.0000
      4  O3B        2.3680   22.7840   10.8980 O.3   802  ADP802      0.0000
      5  PA         5.6700   20.8920   11.5470 P.3   802  ADP802      0.0000
      6  O1A        4.7180   20.3050   12.5390 O.3   802  ADP802      0.0000
      7  O2A        6.9300   21.4860   12.0500 O.3   802  ADP802      0.0000
      8  O3A        4.7890   21.9770   10.5380 O.2   802  ADP802      0.0000
      9  O5'        6.0550   19.8190   10.3240 O.3   802  ADP802      0.0000
     10  C5'        4.9580   19.1930    9.5530 C.3   802  ADP802      0.0000
     11  C4'        5.2610   17.7030    9.4250 C.3   802  ADP802      0.0000
     12  O4'        6.4550   17.5770    8.6490 O.3   802  ADP802      0.0000
     13  C3'        5.5460   16.9950   10.7500 C.3   802  ADP802      0.0000
     14  O3'        5.0870   15.6180   10.7260 O.3   802  ADP802      0.0000
     15  C2'        7.0520   17.0320   10.9280 C.3   802  ADP802      0.0000
     16  O2'        7.5620   15.9680   11.7760 O.3   802  ADP802      0.0000
     17  C1'        7.4820   16.9170    9.4590 C.3   802  ADP802      0.0000
     18  N9         8.8130   17.6490    9.3500 N.pl3 802  ADP802      0.0000
     19  C8         8.9090   18.9860    9.3530 C.3   802  ADP802      0.0000
     20  N7        10.1470   19.3210    9.0480 N.pl3 802  ADP802      0.0000
     21  C5        10.8190   18.2270    8.7070 C.ar  802  ADP802      0.0000
     22  C6        12.1570   18.0080    8.4050 C.ar  802  ADP802      0.0000
     23  N6        13.0540   18.9960    8.2880 N.pl3 802  ADP802      0.0000
     24  N1        12.4860   16.7430    8.0750 N.ar  802  ADP802      0.0000
     25  C2        11.5530   15.7950    7.9880 C.ar  802  ADP802      0.0000
     26  N3        10.3580   15.9100    8.5620 N.ar  802  ADP802      0.0000
     27  C4         9.9260   17.1720    8.7840 C.ar  802  ADP802      0.0000
     28  C         -6.5750   28.3210    6.9760 C.2   850  DAA850      0.0000
     29  OI1       -7.3600   27.5500    6.3890 O.co2 850  DAA850      0.0000
     30  OI2       -5.8460   29.1340    6.4080 O.co2 850  DAA850      0.0000
     31  CB        -5.7450   26.9660    8.8680 C.3   850  DAA850      0.0000
     32  CG        -5.7290   26.6220   10.3360 C.3   850  DAA850      0.0000
     33  CD        -4.5640   25.6360   10.5880 C.3   850  DAA850      0.0000
     34  CE        -4.4740   25.4860   12.1250 C.3   850  DAA850      0.0000
     35  CZ        -3.3370   24.6000   12.6740 C.3   850  DAA850      0.0000
     36  CH        -3.5270   23.1570   12.1300 C.3   850  DAA850      0.0000
     37  CS        -4.9450   22.6920   12.5010 C.3   850  DAA850      0.0000
     38  N1        -3.3860   24.5860   14.1820 N.am  850  DAA850      0.0000
     39  CN1       -2.2200   24.8330   14.8740 C.2   850  DAA850      0.0000
     40  O11       -1.0960   25.3310   14.1120 O.3   850  DAA850      0.0000
     41  O12       -2.0910   24.6790   16.1100 O.2   850  DAA850      0.0000
     42  N2        -2.6200   22.3860   13.0110 N.3   850  DAA850      0.0000
     43 AL          0.0660   24.7610   12.7570 Al    850  DAA850      0.0000
     44  F1         1.5630   24.6970   13.3240 F     850  DAA850      0.0000
     45  F2        -0.4670   23.2510   12.6530 F     850  DAA850      0.0000
     46  F3         0.1860   25.2510   11.2140 F     850  DAA850      0.0000
@<TRIPOS>BOND
     1     1     3    1
     2     5     9    1
     3     5     8    2
     4     5     7    1
     5     5     6    1
     6     9    10    1
     7    10    11    1
     8    11    12    1
     9    11    13    1
    10    12    17    1
    11    13    14    1
    12    13    15    1
    13    15    17    1
    14    15    16    1
    15    17    18    1
    16    18    27    1
    17    18    19    1
    18    19    20    1
    19    20    21    1
    20    21    22   ar
    21    21    27   ar
    22    22    24   ar
    23    22    23    1
    24    24    25   ar
    25    25    26   ar
    26    26    27   ar
    27    28    29   ar
    28    28    30   ar
    29    31    32    1
    30    32    33    1
    31    33    34    1
    32    34    35    1
    33    35    36    1
    34    35    38    1
    35    36    37    1
    36    36    42    1
    37    38    39   am
    38    39    40    1
    39    39    41    2
    40    40    43    1
    41    43    46    1
    42    43    45    1
    43    43    44    1
