@<TRIPOS>MOLECULE
3q60_ATP_1_ligand
   43    45     1     0     0
SMALL
NO_CHARGES


@<TRIPOS>ATOM
     1 PG          -9.1310     9.6650   -21.4100 P.3          1 ATP600   0.0000
     2 O1G         -7.8470     8.8460   -21.4680 O.co2        1 ATP600   0.0000
     3 O2G        -10.0210     9.5350   -22.5880 O.co2        1 ATP600  -1.0000
     4 O3G        -10.1090     9.4290   -20.2190 O.co2        1 ATP600  -1.0000
     5 PB          -8.5140    11.8800   -19.9900 P.3          1 ATP600   0.0000
     6 O1B         -7.5500    13.0080   -20.1740 O.co2        1 ATP600   0.0000
     7 O2B         -8.1490    11.0130   -18.8340 O.co2        1 ATP600  -1.0000
     8 O3B         -8.6620    11.1570   -21.3800 O.3          1 ATP600   0.0000
     9 PA         -11.2710    12.3140   -18.9610 P.3          1 ATP600   0.0000
    10 O1A        -10.9610    11.1250   -18.0710 O.co2        1 ATP600   0.0000
    11 O2A        -12.3920    12.2390   -19.9180 O.co2        1 ATP600  -1.0000
    12 O3A         -9.9290    12.6610   -19.8340 O.3          1 ATP600   0.0000
    13 O5'        -11.4300    13.7060   -18.1700 O.3          1 ATP600   0.0000
    14 C5'        -10.5410    14.0130   -17.0590 C.3          1 ATP600   0.0000
    15 C4'        -11.2910    14.0300   -15.7640 C.3          1 ATP600   0.0000
    16 O4'        -12.2840    15.0450   -15.9240 O.3          1 ATP600   0.0000
    17 C3'        -12.0230    12.7430   -15.3820 C.3          1 ATP600   0.0000
    18 O3'        -12.0060    12.6470   -13.9140 O.3          1 ATP600   0.0000
    19 C2'        -13.4530    13.0300   -15.8840 C.3          1 ATP600   0.0000
    20 O2'        -14.4520    12.2350   -15.2470 O.3          1 ATP600   0.0000
    21 C1'        -13.5780    14.5250   -15.6480 C.3          1 ATP600   0.0000
    22 N9         -14.5700    15.1200   -16.5570 N.pl3        1 ATP600   0.0000
    23 C8         -14.6550    14.9560   -17.9130 C.2          1 ATP600   0.0000
    24 N7         -15.7510    15.5990   -18.3820 N.2          1 ATP600   0.0000
    25 C5         -16.3690    16.1680   -17.3020 C.ar         1 ATP600   0.0000
    26 C6         -17.5680    16.9680   -17.1160 C.ar         1 ATP600   0.0000
    27 N6         -18.2880    17.2880   -18.1710 N.pl3        1 ATP600   0.0000
    28 N1         -17.8980    17.3220   -15.8540 N.ar         1 ATP600   0.0000
    29 C2         -17.1610    16.9570   -14.7820 C.ar         1 ATP600   0.0000
    30 N3         -16.0130    16.2440   -14.8550 N.ar         1 ATP600   0.0000
    31 C4         -15.6380    15.8210   -16.1190 C.ar         1 ATP600   0.0000
    32 H5'1       -10.1270    14.9107   -17.2094 H            1 ATP600   0.0000
    33 H5'2        -9.8231    13.3184   -17.0125 H            1 ATP600   0.0000
    34 H4'        -10.6692    14.2889   -15.0248 H            1 ATP600   0.0000
    35 H3'        -11.6235    11.9368   -15.8185 H            1 ATP600   0.0000
    36 H5         -12.8214    12.1592   -13.6024 H            1 ATP600   0.0000
    37 H2'        -13.4869    12.8577   -16.8685 H            1 ATP600   0.0000
    38 H7         -14.5843    11.3891   -15.7636 H            1 ATP600   0.0000
    39 H1'        -13.8280    14.7056   -14.6967 H            1 ATP600   0.0000
    40 H9         -14.0065    14.4399   -18.4725 H            1 ATP600   0.0000
    41 H10        -19.1163    17.8378   -18.0630 H            1 ATP600   0.0000
    42 H11        -18.0065    16.9812   -19.0802 H            1 ATP600   0.0000
    43 H12        -17.4846    17.2313   -13.8764 H            1 ATP600   0.0000
@<TRIPOS>BOND
     1    1    2      ar
     2    1    3      ar
     3    1    4      ar
     4    1    8       1
     5    5    6      ar
     6    5    7      ar
     7    5    8       1
     8    5   12       1
     9    9   10      ar
    10    9   11      ar
    11    9   12       1
    12    9   13       1
    13   13   14       1
    14   14   15       1
    15   15   16       1
    16   15   17       1
    17   16   21       1
    18   17   18       1
    19   17   19       1
    20   19   20       1
    21   19   21       1
    22   21   22       1
    23   22   23       1
    24   22   31       1
    25   23   24       2
    26   24   25       1
    27   25   26      ar
    28   25   31      ar
    29   26   27       1
    30   26   28      ar
    31   28   29      ar
    32   29   30      ar
    33   30   31      ar
    34   29   43       1
    35   27   42       1
    36   27   41       1
    37   23   40       1
    38   14   32       1
    39   14   33       1
    40   15   34       1
    41   17   35       1
    42   18   36       1
    43   19   37       1
    44   20   38       1
    45   21   39       1
@<TRIPOS>SUBSTRUCTURE
     1 ATP600      1 GROUP             4 A     ATP     0 **** ATP A 600
