@<TRIPOS>MOLECULE
1y6r_MTM_2_ligand
   38    40     1     0     0
SMALL
NO_CHARGES


@<TRIPOS>ATOM
     1 CS          47.2190    90.9910    40.7920 C.3          1 MTM234   0.0000
     2 S5'         47.1380    89.3260    40.0290 S.3          1 MTM234   0.0000
     3 C5'         46.5350    88.3530    41.4570 C.3          1 MTM234   0.0000
     4 C4'         47.6210    87.9070    42.4590 C.3          1 MTM234   0.0000
     5 N4'         46.9570    87.3090    43.6550 N.4          1 MTM234   1.0000
     6 C2'         47.7190    85.5200    42.3050 C.3          1 MTM234   0.0000
     7 O2'         48.6220    84.4460    42.6890 O.3          1 MTM234   0.0000
     8 C3'         48.5530    86.8380    41.9280 C.3          1 MTM234   0.0000
     9 O3'         49.8360    86.8750    42.6350 O.3          1 MTM234   0.0000
    10 C1'         46.6950    85.8670    43.4660 C.3          1 MTM234   0.0000
    11 C9          45.2160    85.7710    43.1230 C.2          1 MTM234   0.0000
    12 C8          44.1680    86.0980    43.9910 C.2          1 MTM234   0.0000
    13 N7          42.9520    85.9620    43.4780 N.pl3        1 MTM234   0.0000
    14 C5          43.1930    85.5190    42.1910 C.ar         1 MTM234   0.0000
    15 C6          42.3320    85.1890    41.0910 C.ar         1 MTM234   0.0000
    16 N6          40.9940    85.2770    41.1720 N.pl3        1 MTM234   0.0000
    17 N1          42.9360    84.7750    39.9220 N.ar         1 MTM234   0.0000
    18 C2          44.2930    84.6860    39.8330 C.ar         1 MTM234   0.0000
    19 N3          45.2000    84.9750    40.8050 N.ar         1 MTM234   0.0000
    20 C4          44.5750    85.3870    41.9560 C.ar         1 MTM234   0.0000
    21 HS1         47.5418    91.6525    40.1151 H            1 MTM234   0.0000
    22 HS2         46.3089    91.2566    41.1100 H            1 MTM234   0.0000
    23 HS3         47.8505    90.9721    41.5671 H            1 MTM234   0.0000
    24 H5'1        46.0853    87.5326    41.1037 H            1 MTM234   0.0000
    25 H5'2        45.8691    88.9113    41.9518 H            1 MTM234   0.0000
    26 H4'         48.1570    88.7025    42.7415 H            1 MTM234   0.0000
    27 H4'1        46.0885    87.7789    43.8131 H            1 MTM234   0.0000
    28 H2'         47.2017    85.2291    41.5002 H            1 MTM234   0.0000
    29 H9          49.5668    84.7687    42.6326 H            1 MTM234   0.0000
    30 H3'         48.6782    86.9207    40.9393 H            1 MTM234   0.0000
    31 H11         50.5630    86.5641    42.0228 H            1 MTM234   0.0000
    32 H1'         46.9054    85.3516    44.2967 H            1 MTM234   0.0000
    33 H13         44.3240    86.4108    44.9279 H            1 MTM234   0.0000
    34 H14         42.0712    86.1380    43.9176 H            1 MTM234   0.0000
    35 H15         40.4285    85.0378    40.3827 H            1 MTM234   0.0000
    36 H16         40.5635    85.5817    42.0216 H            1 MTM234   0.0000
    37 H17         44.6624    84.3742    38.9576 H            1 MTM234   0.0000
    38 H4'2        47.5509    87.4296    44.4504 H            1 MTM234   0.0000
@<TRIPOS>BOND
     1    1    2       1
     2    2    3       1
     3    3    4       1
     4    4    5       1
     5    4    8       1
     6    5   10       1
     7    6    7       1
     8    6    8       1
     9    6   10       1
    10    8    9       1
    11   10   11       1
    12   11   12       2
    13   11   20       1
    14   12   13       1
    15   13   14       1
    16   14   15      ar
    17   14   20      ar
    18   15   16       1
    19   15   17      ar
    20   17   18      ar
    21   18   19      ar
    22   19   20      ar
    23    1   21       1
    24    1   22       1
    25    1   23       1
    26    3   24       1
    27    3   25       1
    28    4   26       1
    29    5   27       1
    30    6   28       1
    31    7   29       1
    32    8   30       1
    33    9   31       1
    34   10   32       1
    35   12   33       1
    36   13   34       1
    37   16   35       1
    38   16   36       1
    39   18   37       1
    40    5   38       1
@<TRIPOS>SUBSTRUCTURE
     1 MTM234      1 GROUP             4 B     MTM     0 **** MTM B 234
