@<TRIPOS>MOLECULE
3gdp_FAD_1_ligand
   84    89     1     0     0
SMALL
NO_CHARGES


@<TRIPOS>ATOM
     1 PA          74.1940    -5.6010   -33.1160 P.3          1 FAD523   0.0000
     2 O1A         74.3060    -4.9530   -31.7790 O.co2        1 FAD523   0.0000
     3 O2A         73.5290    -4.9150   -34.0990 O.co2        1 FAD523  -1.0000
     4 O5B         75.6540    -5.6020   -33.5120 O.3          1 FAD523   0.0000
     5 C5B         76.2100    -5.9410   -34.8270 C.3          1 FAD523   0.0000
     6 C4B         77.2800    -4.9050   -35.1200 C.3          1 FAD523   0.0000
     7 O4B         77.9820    -5.3160   -36.3760 O.3          1 FAD523   0.0000
     8 C3B         76.7780    -3.4390   -35.4000 C.3          1 FAD523   0.0000
     9 O3B         77.4290    -2.5010   -34.5940 O.3          1 FAD523   0.0000
    10 C2B         77.0090    -3.2750   -36.9390 C.3          1 FAD523   0.0000
    11 O2B         77.2070    -1.9290   -37.3130 O.3          1 FAD523   0.0000
    12 C1B         78.2310    -4.1060   -37.1650 C.3          1 FAD523   0.0000
    13 N9A         78.4400    -4.6550   -38.5090 N.pl3        1 FAD523   0.0000
    14 C8A         77.5110    -5.2840   -39.3230 C.2          1 FAD523   0.0000
    15 N7A         78.0270    -5.6840   -40.4870 N.2          1 FAD523   0.0000
    16 C5A         79.3460    -5.3090   -40.4240 C.ar         1 FAD523   0.0000
    17 C6A         80.4570    -5.4500   -41.3860 C.ar         1 FAD523   0.0000
    18 N6A         80.3320    -6.0390   -42.5440 N.pl3        1 FAD523   0.0000
    19 N1A         81.6750    -4.9280   -40.9660 N.ar         1 FAD523   0.0000
    20 C2A         81.8360    -4.3030   -39.7470 C.ar         1 FAD523   0.0000
    21 N3A         80.8700    -4.1280   -38.8050 N.ar         1 FAD523   0.0000
    22 C4A         79.6420    -4.6410   -39.1950 C.ar         1 FAD523   0.0000
    23 N1          66.4070    -5.1790   -26.9180 N.2          1 FAD523   0.0000
    24 C2          66.2390    -5.0870   -25.6000 C.2          1 FAD523   0.0000
    25 O2          66.5160    -5.9880   -24.8510 O.2          1 FAD523   0.0000
    26 N3          65.7090    -3.9010   -25.0020 N.pl3        1 FAD523   0.0000
    27 C4          65.1500    -2.8760   -25.7690 C.2          1 FAD523   0.0000
    28 O4          64.6190    -1.9410   -25.2180 O.2          1 FAD523   0.0000
    29 C4X         65.2520    -3.0030   -27.2210 C.2          1 FAD523   0.0000
    30 N5          64.7040    -2.0510   -28.0490 N.2          1 FAD523   0.0000
    31 C5X         65.0970    -2.0600   -29.3790 C.ar         1 FAD523   0.0000
    32 C6          64.7620    -0.9180   -30.1850 C.ar         1 FAD523   0.0000
    33 C7          65.2170    -0.8070   -31.5050 C.ar         1 FAD523   0.0000
    34 C7M         64.8780     0.4290   -32.3160 C.3          1 FAD523   0.0000
    35 C8          66.0150    -1.8980   -32.1010 C.ar         1 FAD523   0.0000
    36 C8M         66.5510    -1.8440   -33.5100 C.3          1 FAD523   0.0000
    37 C9          66.2980    -3.0560   -31.3300 C.ar         1 FAD523   0.0000
    38 C9A         65.8790    -3.1340   -29.9730 C.ar         1 FAD523   0.0000
    39 N10         66.2170    -4.2480   -29.0850 N.pl3        1 FAD523   0.0000
    40 C10         65.9740    -4.1790   -27.7500 C.2          1 FAD523   0.0000
    41 C1'         66.8620    -5.4600   -29.6640 C.3          1 FAD523   0.0000
    42 C2'         68.3720    -5.5450   -29.2860 C.3          1 FAD523   0.0000
    43 O2'         68.8900    -4.2060   -29.1850 O.3          1 FAD523   0.0000
    44 C3'         69.0850    -6.3300   -30.3850 C.3          1 FAD523   0.0000
    45 O3'         68.4520    -7.6110   -30.4800 O.3          1 FAD523   0.0000
    46 C4'         70.5700    -6.5310   -30.0300 C.3          1 FAD523   0.0000
    47 O4'         71.2190    -5.2750   -29.7880 O.3          1 FAD523   0.0000
    48 C5'         71.2180    -7.2800   -31.1750 C.3          1 FAD523   0.0000
    49 O5'         72.6960    -7.6140   -30.8110 O.3          1 FAD523   0.0000
    50 P           73.6690    -8.1400   -31.8650 P.3          1 FAD523   0.0000
    51 O1P         75.0280    -8.1880   -31.1930 O.co2        1 FAD523   0.0000
    52 O2P         73.2180    -9.3170   -32.4770 O.co2        1 FAD523  -1.0000
    53 O3P         73.7180    -7.1670   -32.9770 O.3          1 FAD523   0.0000
    54 H5B1        75.4943    -5.9058   -35.5246 H            1 FAD523   0.0000
    55 H5B2        76.6114    -6.8567   -34.8071 H            1 FAD523   0.0000
    56 H4B         77.9371    -4.8890   -34.3664 H            1 FAD523   0.0000
    57 H3B         75.7961    -3.3948   -35.2158 H            1 FAD523   0.0000
    58 H5          78.4125    -2.5340   -34.7719 H            1 FAD523   0.0000
    59 H2B         76.2360    -3.6597   -37.4435 H            1 FAD523   0.0000
    60 H7          78.0099    -1.5663   -36.8400 H            1 FAD523   0.0000
    61 H1B         79.0499    -3.6316   -36.8420 H            1 FAD523   0.0000
    62 H8A         76.5549    -5.4234   -39.0652 H            1 FAD523   0.0000
    63 H6A1        81.1184    -6.1068   -43.1580 H            1 FAD523   0.0000
    64 H6A2        79.4498    -6.4225   -42.8173 H            1 FAD523   0.0000
    65 H2A         82.7460    -3.9458   -39.5363 H            1 FAD523   0.0000
    66 H13         65.7394    -3.8027   -24.0073 H            1 FAD523   0.0000
    67 H14         64.1951    -0.1912   -29.7972 H            1 FAD523   0.0000
    68 H7M1        65.2765     0.3479   -33.2296 H            1 FAD523   0.0000
    69 H7M2        63.8847     0.5156   -32.3922 H            1 FAD523   0.0000
    70 H7M3        65.2493     1.2384   -31.8610 H            1 FAD523   0.0000
    71 H8M1        67.0594    -2.6826   -33.7056 H            1 FAD523   0.0000
    72 H8M2        65.7900    -1.7578   -34.1530 H            1 FAD523   0.0000
    73 H8M3        67.1589    -1.0557   -33.6054 H            1 FAD523   0.0000
    74 H21         66.7940    -3.8200   -31.7427 H            1 FAD523   0.0000
    75 H1'1        66.7785    -5.4272   -30.6600 H            1 FAD523   0.0000
    76 H1'2        66.3947    -6.2731   -29.3169 H            1 FAD523   0.0000
    77 H2'         68.4765    -6.0162   -28.4102 H            1 FAD523   0.0000
    78 H25         69.8597    -4.2044   -29.4294 H            1 FAD523   0.0000
    79 H3'         69.0056    -5.8453   -31.2561 H            1 FAD523   0.0000
    80 H27         68.0793    -7.7312   -31.4001 H            1 FAD523   0.0000
    81 H4'         70.6311    -7.0902   -29.2032 H            1 FAD523   0.0000
    82 H29         72.1796    -5.4346   -29.5603 H            1 FAD523   0.0000
    83 H5'1        71.1981    -6.7121   -31.9979 H            1 FAD523   0.0000
    84 H5'2        70.7168    -8.1287   -31.3435 H            1 FAD523   0.0000
@<TRIPOS>BOND
     1    1    2      ar
     2    1    3      ar
     3    1    4       1
     4    1   53       1
     5    4    5       1
     6    5    6       1
     7    6    7       1
     8    6    8       1
     9    7   12       1
    10    8    9       1
    11    8   10       1
    12   10   11       1
    13   10   12       1
    14   12   13       1
    15   13   14       1
    16   13   22       1
    17   14   15       2
    18   15   16       1
    19   16   17      ar
    20   16   22      ar
    21   17   18       1
    22   17   19      ar
    23   19   20      ar
    24   20   21      ar
    25   21   22      ar
    26   23   24       1
    27   23   40       2
    28   24   25       2
    29   24   26       1
    30   26   27       1
    31   27   28       2
    32   27   29       1
    33   29   30       2
    34   29   40       1
    35   30   31       1
    36   31   32      ar
    37   31   38      ar
    38   32   33      ar
    39   33   34       1
    40   33   35      ar
    41   35   36       1
    42   35   37      ar
    43   37   38      ar
    44   38   39       1
    45   39   40       1
    46   39   41       1
    47   41   42       1
    48   42   43       1
    49   42   44       1
    50   44   45       1
    51   44   46       1
    52   46   47       1
    53   46   48       1
    54   48   49       1
    55   49   50       1
    56   50   51      ar
    57   50   52      ar
    58   50   53       1
    59   48   84       1
    60    5   54       1
    61    5   55       1
    62    6   56       1
    63    8   57       1
    64    9   58       1
    65   10   59       1
    66   11   60       1
    67   12   61       1
    68   14   62       1
    69   18   63       1
    70   18   64       1
    71   20   65       1
    72   26   66       1
    73   32   67       1
    74   34   68       1
    75   34   69       1
    76   34   70       1
    77   36   71       1
    78   36   72       1
    79   36   73       1
    80   37   74       1
    81   41   75       1
    82   41   76       1
    83   42   77       1
    84   43   78       1
    85   44   79       1
    86   45   80       1
    87   46   81       1
    88   47   82       1
    89   48   83       1
@<TRIPOS>SUBSTRUCTURE
     1 FAD523      1 GROUP             4 A     FAD     0 **** FAD A 523
