@<TRIPOS>MOLECULE
1pw6_FRB_2_ligand
   68    71     1     0     0
SMALL
NO_CHARGES


@<TRIPOS>ATOM
     1 N1          94.3120    19.3070     9.3370 N.pl3        1 FRB301   1.0000
     2 C2          94.1410    20.5630     8.9540 C.cat        1 FRB301   0.0000
     3 N3          94.7950    21.0120     7.8880 N.pl3        1 FRB301   0.0000
     4 N4          93.3170    21.3460     9.6520 N.pl3        1 FRB301   0.0000
     5 C5          92.4610    22.3590     9.0540 C.3          1 FRB301   0.0000
     6 C6          92.6020    23.6300     9.8870 C.3          1 FRB301   0.0000
     7 C7          94.0150    24.2080     9.7580 C.3          1 FRB301   0.0000
     8 C8          94.2020    25.4860    10.5810 C.3          1 FRB301   0.0000
     9 C9          93.1310    26.5340    10.2690 C.3          1 FRB301   0.0000
    10 C10         91.7220    25.9530    10.3780 C.3          1 FRB301   0.0000
    11 C11         91.5740    24.6990     9.5150 C.3          1 FRB301   0.0000
    12 C12         91.0340    21.8870     8.9540 C.2          1 FRB301   0.0000
    13 O13         90.4700    21.4000     9.9200 O.2          1 FRB301   0.0000
    14 N14         90.4370    22.0170     7.7690 N.2          1 FRB301   0.0000
    15 C15         89.2010    22.5140     7.6720 C.2          1 FRB301   0.0000
    16 C16         88.8210    23.1870     6.5700 C.2          1 FRB301   0.0000
    17 O17         89.6680    23.7400     5.8830 O.2          1 FRB301   0.0000
    18 N18         87.4500    23.2590     6.1900 N.am         1 FRB301   0.0000
    19 C19         86.4610    22.3660     6.8150 C.3          1 FRB301   0.0000
    20 C20         85.7200    21.6190     5.7070 C.3          1 FRB301   0.0000
    21 C23         86.9920    24.2010     5.1450 C.3          1 FRB301   0.0000
    22 C22         86.2460    23.4400     4.0420 C.3          1 FRB301   0.0000
    23 C21         85.1420    22.5630     4.6440 C.3          1 FRB301   0.0000
    24 C24         84.3660    21.7350     3.6740 C.2          1 FRB301   0.0000
    25 N25         83.1890    21.1160     3.8770 N.pl3        1 FRB301   0.0000
    26 N26         82.8400    20.4790     2.7940 N.2          1 FRB301   0.0000
    27 C28         84.8440    21.4970     2.3840 C.2          1 FRB301   0.0000
    28 C27         83.8090    20.7060     1.9070 C.2          1 FRB301   0.0000
    29 C29         83.6820    20.1190     0.6450 C.ar         1 FRB301   0.0000
    30 C34         84.8190    19.5150    -0.1040 C.ar         1 FRB301   0.0000
    31 CL36        86.5010    19.5270     0.5070 Cl           1 FRB301   0.0000
    32 C30         82.4080    20.0420     0.0720 C.ar         1 FRB301   0.0000
    33 C31         82.1900    19.4470    -1.1740 C.ar         1 FRB301   0.0000
    34 C32         83.2320    18.8840    -1.9120 C.ar         1 FRB301   0.0000
    35 C33         84.5350    18.8940    -1.4240 C.ar         1 FRB301   0.0000
    36 CL35        85.8690    18.1590    -2.3690 Cl           1 FRB301   0.0000
    37 H1          93.8252    18.9577    10.1377 H            1 FRB301   0.0000
    38 H2          94.9279    18.7078     8.8256 H            1 FRB301   0.0000
    39 H3          94.6739    21.9586     7.5892 H            1 FRB301   0.0000
    40 H4          95.4082    20.4033     7.3846 H            1 FRB301   0.0000
    41 H5          92.7953    22.5488     8.1309 H            1 FRB301   0.0000
    42 H6          92.4570    23.3858    10.8458 H            1 FRB301   0.0000
    43 H7          94.1894    24.4175     8.7959 H            1 FRB301   0.0000
    44 H8          94.6718    23.5236    10.0745 H            1 FRB301   0.0000
    45 H9          95.1010    25.8729    10.3759 H            1 FRB301   0.0000
    46 H10         94.1527    25.2540    11.5525 H            1 FRB301   0.0000
    47 H11         93.2706    26.8728     9.3386 H            1 FRB301   0.0000
    48 H12         93.2202    27.2910    10.9163 H            1 FRB301   0.0000
    49 H13         91.0615    26.6391    10.0729 H            1 FRB301   0.0000
    50 H14         91.5396    25.7159    11.3322 H            1 FRB301   0.0000
    51 H15         90.6559    24.3240     9.6435 H            1 FRB301   0.0000
    52 H16         91.7004    24.9497     8.5552 H            1 FRB301   0.0000
    53 H17         88.5536    22.3852     8.4232 H            1 FRB301   0.0000
    54 H18         85.8118    22.9041     7.3525 H            1 FRB301   0.0000
    55 H19         86.9258    21.7116     7.4114 H            1 FRB301   0.0000
    56 H20         84.9697    21.1002     6.1168 H            1 FRB301   0.0000
    57 H21         86.3576    20.9891     5.2635 H            1 FRB301   0.0000
    58 H22         87.7836    24.6663     4.7489 H            1 FRB301   0.0000
    59 H23         86.3785    24.8765     5.5541 H            1 FRB301   0.0000
    60 H24         86.8933    22.8602     3.5472 H            1 FRB301   0.0000
    61 H25         85.8357    24.0968     3.4093 H            1 FRB301   0.0000
    62 H26         84.4945    23.1707     5.1038 H            1 FRB301   0.0000
    63 H27         82.6630    21.1406     4.7271 H            1 FRB301   0.0000
    64 H28         85.6835    21.8053     1.9366 H            1 FRB301   0.0000
    65 H29         81.6292    20.4245     0.5692 H            1 FRB301   0.0000
    66 H30         81.2623    19.4242    -1.5466 H            1 FRB301   0.0000
    67 H31         83.0401    18.4688    -2.8013 H            1 FRB301   0.0000
    68 H32         93.2858    21.2299    10.6447 H            1 FRB301   0.0000
@<TRIPOS>BOND
     1    1    2      ar
     2    2    3      ar
     3    2    4      ar
     4    4    5       1
     5    5    6       1
     6    5   12       1
     7    6    7       1
     8    6   11       1
     9    7    8       1
    10    8    9       1
    11    9   10       1
    12   10   11       1
    13   12   13       2
    14   12   14       1
    15   14   15       2
    16   15   16       1
    17   16   17       2
    18   16   18      am
    19   18   19       1
    20   18   21       1
    21   19   20       1
    22   20   23       1
    23   21   22       1
    24   22   23       1
    25   23   24       1
    26   24   25       1
    27   24   27       2
    28   25   26       1
    29   26   28       2
    30   27   28       1
    31   28   29       1
    32   29   30      ar
    33   29   32      ar
    34   30   31       1
    35   30   35      ar
    36   32   33      ar
    37   33   34      ar
    38   34   35      ar
    39   35   36       1
    40    1   37       1
    41    1   38       1
    42    3   39       1
    43    3   40       1
    44    5   41       1
    45    6   42       1
    46    7   43       1
    47    7   44       1
    48    8   45       1
    49    8   46       1
    50    9   47       1
    51    9   48       1
    52   10   49       1
    53   10   50       1
    54   11   51       1
    55   11   52       1
    56   15   53       1
    57   19   54       1
    58   19   55       1
    59   20   56       1
    60   20   57       1
    61   21   58       1
    62   21   59       1
    63   22   60       1
    64   22   61       1
    65   23   62       1
    66   25   63       1
    67   27   64       1
    68   32   65       1
    69   33   66       1
    70   34   67       1
    71    4   68       1
@<TRIPOS>SUBSTRUCTURE
     1 FRB301      1 GROUP             4 B     FRB     0 **** FRB B 301
