@<TRIPOS>MOLECULE
2lbv_EB4_1_ligand
   72    75     1     0     0
SMALL
NO_CHARGES


@<TRIPOS>ATOM
     1 O6           1.4970     4.0130     3.1340 O.3          1 EB4200   0.0000
     2 O4           0.4390     2.2700     2.2640 O.3          1 EB4200   0.0000
     3 O5           2.7420     2.2680     2.5290 O.3          1 EB4200   0.0000
     4 N1          -0.6590    -1.0310     5.6640 N.am         1 EB4200   0.0000
     5 C5           3.7690     1.4080     2.7660 C.ar         1 EB4200   0.0000
     6 C4          -0.5000     1.2860     2.2270 C.ar         1 EB4200   0.0000
     7 C1          -0.5540     0.5080     3.3790 C.ar         1 EB4200   0.0000
     8 C2           3.8580     0.9450     4.0740 C.ar         1 EB4200   0.0000
     9 C6           0.9800     4.8360     4.0840 C.ar         1 EB4200   0.0000
    10 C8           4.6910     0.9860     1.8160 C.ar         1 EB4200   0.0000
    11 N2           3.9140    -0.1150     6.5260 N.am         1 EB4200   0.0000
    12 C9           0.5940     6.1530     3.8710 C.ar         1 EB4200   0.0000
    13 C10         -2.2810    -0.0200     1.2640 C.ar         1 EB4200   0.0000
    14 O3           1.2110     2.9570     5.4250 O.3          1 EB4200  -1.0000
    15 N3           0.4530     3.1110     7.8370 N.am         1 EB4200   0.0000
    16 C16         -1.4710    -0.5330     3.4720 C.ar         1 EB4200   0.0000
    17 C7          -1.3640     1.0200     1.1720 C.ar         1 EB4200   0.0000
    18 C3           0.8510     4.2660     5.3460 C.ar         1 EB4200   0.0000
    19 C11          5.7020     0.1020     2.1740 C.ar         1 EB4200   0.0000
    20 O1           0.3380     0.8630     4.3410 O.3          1 EB4200  -1.0000
    21 O2           2.9100     1.4170     4.9260 O.3          1 EB4200  -1.0000
    22 C12          0.1100     6.9120     4.9310 C.ar         1 EB4200   0.0000
    23 C15          0.0120     6.3530     6.2000 C.ar         1 EB4200   0.0000
    24 C14          5.7910    -0.3610     3.4830 C.ar         1 EB4200   0.0000
    25 C13         -2.3350    -0.7980     2.4150 C.ar         1 EB4200   0.0000
    26 O7          -2.3370    -2.2920     4.8010 O.2          1 EB4200   0.0000
    27 C19         -1.5310    -1.3670     4.7040 C.2          1 EB4200   0.0000
    28 C22         -0.5900    -1.7610     6.9390 C.3          1 EB4200   0.0000
    29 C25         -0.8690    -0.8280     8.1080 C.2          1 EB4200   0.0000
    30 O10         -1.4340    -1.2450     9.1180 O.2          1 EB4200   0.0000
    31 O15         -0.4590     0.4600     7.9540 O.3          1 EB4200   0.0000
    32 C30         -0.7360     1.3530     9.0440 C.3          1 EB4200   0.0000
    33 C24          0.3740     2.3860     9.1130 C.3          1 EB4200   0.0000
    34 C21          0.2760     4.4380     7.7720 C.2          1 EB4200   0.0000
    35 C18          0.3830     5.0300     6.4090 C.ar         1 EB4200   0.0000
    36 O9           0.0410     5.1450     8.7500 O.2          1 EB4200   0.0000
    37 C27          1.6720     1.6160     9.5060 C.2          1 EB4200   0.0000
    38 O12          1.8540     1.2240    10.6570 O.2          1 EB4200   0.0000
    39 C28          0.7340    -2.5030     7.0550 C.3          1 EB4200   0.0000
    40 O13          1.8820    -1.6440     6.9780 O.3          1 EB4200   0.0000
    41 C26          2.5940    -1.4160     8.1150 C.2          1 EB4200   0.0000
    42 O11          2.2980    -1.8750     9.2170 O.2          1 EB4200   0.0000
    43 C23          3.8270    -0.5250     7.9340 C.3          1 EB4200   0.0000
    44 C29          3.7330     0.6950     8.8350 C.3          1 EB4200   0.0000
    45 O14          2.5510     1.4260     8.4860 O.3          1 EB4200   0.0000
    46 C20          4.9600    -0.4060     5.7400 C.2          1 EB4200   0.0000
    47 O8           5.9470    -1.0360     6.1180 O.2          1 EB4200   0.0000
    48 C17          4.8680     0.0610     4.4340 C.ar         1 EB4200   0.0000
    49 H1           1.6238     4.3456     2.1995 H            1 EB4200   0.0000
    50 H2           0.5532     2.8818     1.4813 H            1 EB4200   0.0000
    51 H3           2.6083     2.6469     1.6133 H            1 EB4200   0.0000
    52 H4          -0.0379    -0.2627     5.5094 H            1 EB4200   0.0000
    53 H5           4.6272     1.3182     0.8750 H            1 EB4200   0.0000
    54 H6           3.1558     0.4067     6.1349 H            1 EB4200   0.0000
    55 H7           0.6639     6.5544     2.9578 H            1 EB4200   0.0000
    56 H8          -2.9016    -0.2087     0.5029 H            1 EB4200   0.0000
    57 H9           0.6433     2.6022     6.9974 H            1 EB4200   0.0000
    58 H10         -1.3258     1.5789     0.3436 H            1 EB4200   0.0000
    59 H11          6.3658    -0.2014     1.4904 H            1 EB4200   0.0000
    60 H12         -0.1678     7.8607     4.7802 H            1 EB4200   0.0000
    61 H13         -0.3259     6.9035     6.9634 H            1 EB4200   0.0000
    62 H14          6.5185    -0.9971     3.7400 H            1 EB4200   0.0000
    63 H15         -2.9941    -1.5470     2.4827 H            1 EB4200   0.0000
    64 H16         -1.3161    -2.4485     6.9276 H            1 EB4200   0.0000
    65 H17         -0.7721     0.8387     9.9008 H            1 EB4200   0.0000
    66 H18         -1.6127     1.8093     8.8920 H            1 EB4200   0.0000
    67 H19          0.1579     3.0392     9.8387 H            1 EB4200   0.0000
    68 H20          0.7884    -3.1709     6.3127 H            1 EB4200   0.0000
    69 H21          0.7537    -2.9793     7.9341 H            1 EB4200   0.0000
    70 H22          4.6457    -1.0467     8.1740 H            1 EB4200   0.0000
    71 H23          4.5383     1.2734     8.7051 H            1 EB4200   0.0000
    72 H24          3.6811     0.4056     9.7908 H            1 EB4200   0.0000
@<TRIPOS>BOND
     1    1    9       1
     2    2    6       1
     3    3    5       1
     4    4   27      am
     5    4   28       1
     6    5    8      ar
     7    5   10      ar
     8    6    7      ar
     9    6   17      ar
    10    7   16      ar
    11    7   20       1
    12    8   21       1
    13    8   48      ar
    14    9   12      ar
    15    9   18      ar
    16   10   19      ar
    17   11   43       1
    18   11   46      am
    19   12   22      ar
    20   13   17      ar
    21   13   25      ar
    22   14   18       1
    23   15   33       1
    24   15   34      am
    25   16   25      ar
    26   16   27       1
    27   18   35      ar
    28   19   24      ar
    29   22   23      ar
    30   23   35      ar
    31   24   48      ar
    32   26   27       2
    33   28   29       1
    34   28   39       1
    35   29   30       2
    36   29   31       1
    37   31   32       1
    38   32   33       1
    39   33   37       1
    40   34   35       1
    41   34   36       2
    42   37   38       2
    43   37   45       1
    44   39   40       1
    45   40   41       1
    46   41   42       2
    47   41   43       1
    48   43   44       1
    49   44   45       1
    50   46   47       2
    51   46   48       1
    52    1   49       1
    53    2   50       1
    54    3   51       1
    55    4   52       1
    56   10   53       1
    57   11   54       1
    58   12   55       1
    59   13   56       1
    60   44   72       1
    61   15   57       1
    62   17   58       1
    63   19   59       1
    64   44   71       1
    65   43   70       1
    66   22   60       1
    67   23   61       1
    68   24   62       1
    69   25   63       1
    70   28   64       1
    71   32   65       1
    72   32   66       1
    73   33   67       1
    74   39   68       1
    75   39   69       1
@<TRIPOS>SUBSTRUCTURE
     1 EB4200      1 GROUP             4 A     EB4     0 **** EB4 A 200
