@<TRIPOS>MOLECULE
4kvz_SAH_1_ligand
   46    48     1     0     0
SMALL
NO_CHARGES


@<TRIPOS>ATOM
     1 N           55.7150    23.5380    44.4500 N.4          1 SAH500   1.0000
     2 CA          56.0620    23.8880    45.8280 C.3          1 SAH500   0.0000
     3 CB          54.8400    24.4500    46.5490 C.3          1 SAH500   0.0000
     4 CG          55.2760    25.5800    47.4740 C.3          1 SAH500   0.0000
     5 SD          53.9340    26.0910    48.5150 S.3          1 SAH500   0.0000
     6 C           56.5290    22.6720    46.5650 C.2          1 SAH500   0.0000
     7 O           56.2020    21.5520    46.1980 O.co2        1 SAH500   0.0000
     8 OXT         57.2570    22.7690    47.5510 O.co2        1 SAH500  -1.0000
     9 C5'         52.7570    26.7280    47.3640 C.3          1 SAH500   0.0000
    10 C4'         53.4020    27.8020    46.4920 C.3          1 SAH500   0.0000
    11 O4'         52.4920    28.2040    45.4680 O.3          1 SAH500   0.0000
    12 C3'         53.7690    29.0650    47.2720 C.3          1 SAH500   0.0000
    13 O3'         55.1560    29.3660    47.0570 O.3          1 SAH500   0.0000
    14 C2'         52.8840    30.1450    46.6840 C.3          1 SAH500   0.0000
    15 O2'         53.4990    31.4330    46.6760 O.3          1 SAH500   0.0000
    16 C1'         52.6330    29.6190    45.2860 C.3          1 SAH500   0.0000
    17 N9          51.4120    30.1450    44.6270 N.pl3        1 SAH500   0.0000
    18 C8          50.1780    30.2440    45.1620 C.2          1 SAH500   0.0000
    19 N7          49.3020    30.7420    44.2520 N.2          1 SAH500   0.0000
    20 C5          49.9900    30.9620    43.1150 C.ar         1 SAH500   0.0000
    21 C6          49.6950    31.4900    41.7660 C.ar         1 SAH500   0.0000
    22 N6          48.4360    31.8850    41.4320 N.pl3        1 SAH500   0.0000
    23 N1          50.7090    31.5540    40.8770 N.ar         1 SAH500   0.0000
    24 C2          51.9740    31.1720    41.1670 C.ar         1 SAH500   0.0000
    25 N3          52.3050    30.6890    42.3780 N.ar         1 SAH500   0.0000
    26 C4          51.3800    30.5700    43.3690 C.ar         1 SAH500   0.0000
    27 H1          56.5213    23.1710    43.9862 H            1 SAH500   0.0000
    28 H2          54.9901    22.8492    44.4535 H            1 SAH500   0.0000
    29 HA          56.7898    24.5738    45.8235 H            1 SAH500   0.0000
    30 HB1         54.4073    23.7263    47.0867 H            1 SAH500   0.0000
    31 HB2         54.1880    24.8012    45.8771 H            1 SAH500   0.0000
    32 HG1         55.5782    26.3576    46.9226 H            1 SAH500   0.0000
    33 HG2         56.0326    25.2628    48.0458 H            1 SAH500   0.0000
    34 H5'1        51.9879    27.1261    47.8640 H            1 SAH500   0.0000
    35 H5'2        52.4274    25.9842    46.7826 H            1 SAH500   0.0000
    36 H4'         54.2269    27.4277    46.0683 H            1 SAH500   0.0000
    37 H3'         53.5804    28.9455    48.2468 H            1 SAH500   0.0000
    38 H12         55.3174    29.5152    46.0815 H            1 SAH500   0.0000
    39 H2'         52.0217    30.1862    47.1887 H            1 SAH500   0.0000
    40 H14         54.3367    31.3990    46.1310 H            1 SAH500   0.0000
    41 H1'         53.4297    29.8045    44.7108 H            1 SAH500   0.0000
    42 H16         49.9411    29.9864    46.0988 H            1 SAH500   0.0000
    43 H17         48.2499    32.2404    40.5160 H            1 SAH500   0.0000
    44 H18         47.6971    31.8198    42.1026 H            1 SAH500   0.0000
    45 H19         52.6805    31.2507    40.4637 H            1 SAH500   0.0000
    46 H20         55.3965    24.3547    43.9688 H            1 SAH500   0.0000
@<TRIPOS>BOND
     1    1    2       1
     2    2    3       1
     3    2    6       1
     4    3    4       1
     5    4    5       1
     6    5    9       1
     7    6    7      ar
     8    6    8      ar
     9    9   10       1
    10   10   11       1
    11   10   12       1
    12   11   16       1
    13   12   13       1
    14   12   14       1
    15   14   15       1
    16   14   16       1
    17   16   17       1
    18   17   18       1
    19   17   26       1
    20   18   19       2
    21   19   20       1
    22   20   21      ar
    23   20   26      ar
    24   21   22       1
    25   21   23      ar
    26   23   24      ar
    27   24   25      ar
    28   25   26      ar
    29    1   27       1
    30    1   28       1
    31    2   29       1
    32    3   30       1
    33    3   31       1
    34    4   32       1
    35    4   33       1
    36    1   46       1
    37    9   34       1
    38    9   35       1
    39   10   36       1
    40   12   37       1
    41   13   38       1
    42   14   39       1
    43   15   40       1
    44   16   41       1
    45   18   42       1
    46   22   43       1
    47   22   44       1
    48   24   45       1
@<TRIPOS>SUBSTRUCTURE
     1 SAH500      1 GROUP             4 A     SAH     0 **** SAH A 500
