@<TRIPOS>MOLECULE
1pl9_FPE_1_ligand
   15    14     1     0     0
SMALL
NO_CHARGES


@<TRIPOS>ATOM
     1 O1          71.3560   -51.7590    97.8700 O.2          1 FPE300   0.0000
     2 C1          70.2330   -52.3240    97.9110 C.2          1 FPE300   0.0000
     3 O2'         70.1510   -53.5650    98.0650 O.3          1 FPE300   0.0000
     4 C2          68.9420   -51.4910    97.7700 C.3          1 FPE300   0.0000
     5 O5          67.5410   -51.8670    97.4420 O.3          1 FPE300   0.0000
     6 P1          66.9080   -53.3870    97.7570 P.3          1 FPE300   0.0000
     7 O2          66.0920   -54.1620    96.7240 O.co2        1 FPE300   0.0000
     8 O3          68.1150   -54.2260    98.1740 O.co2        1 FPE300  -1.0000
     9 O4          66.0280   -53.1410    98.9850 O.co2        1 FPE300  -1.0000
    10 C3          69.0090   -50.2950    97.1630 C.3          1 FPE300   0.0000
    11 F1          67.9060   -49.4250    97.0710 F            1 FPE300   0.0000
    12 H1          68.8233   -51.1961    98.7181 H            1 FPE300   0.0000
    13 H2          69.2964   -50.4777    96.2228 H            1 FPE300   0.0000
    14 H3          69.7257   -49.7838    97.6373 H            1 FPE300   0.0000
    15 H2'         69.2544   -54.0068    98.0966 H            1 FPE300   0.0000
@<TRIPOS>BOND
     1    1    2       2
     2    2    3       1
     3    2    4       1
     4    4    5       1
     5    4   10       1
     6    5    6       1
     7    6    7      ar
     8    6    8      ar
     9    6    9      ar
    10   10   11       1
    11   10   14       1
    12    4   12       1
    13   10   13       1
    14    3   15       1
@<TRIPOS>SUBSTRUCTURE
     1 FPE300      1 GROUP             4 A     FPE     0 **** FPE A 300
