@<TRIPOS>MOLECULE
4dx7_DM2_1_ligand
   71    75     1     0     0
SMALL
NO_CHARGES


@<TRIPOS>ATOM
     1 C1          34.5610   -15.7660     1.1770 C.ar         1 DM21105   0.0000
     2 C2          35.0230   -14.4900     0.9280 C.ar         1 DM21105   0.0000
     3 C3          35.3940   -14.1450    -0.3810 C.ar         1 DM21105   0.0000
     4 C4          35.2970   -15.0940    -1.4340 C.ar         1 DM21105   0.0000
     5 O4          35.6780   -14.7020    -2.7260 O.3          1 DM21105   0.0000
     6 C5          34.8180   -16.4200    -1.1680 C.ar         1 DM21105   0.0000
     7 C6          34.6490   -17.5670    -2.1970 C.ar         1 DM21105   0.0000
     8 O6          34.9840   -17.3190    -3.5090 O.3          1 DM21105   0.0000
     9 C7          34.1300   -18.9350    -1.7710 C.ar         1 DM21105   0.0000
    10 C8          33.9780   -19.9750    -2.6760 C.ar         1 DM21105   0.0000
    11 O8          34.3080   -19.7700    -4.0270 O.3          1 DM21105   0.0000
    12 C9          33.4600   -21.3340    -2.2540 C.ar         1 DM21105   0.0000
    13 C10         33.2940   -22.4810    -3.2710 C.3          1 DM21105   0.0000
    14 O10         34.5130   -22.7980    -3.8970 O.3          1 DM21105   0.0000
    15 C11         32.7060   -23.7450    -2.6270 C.3          1 DM21105   0.0000
    16 C12         33.1150   -24.0340    -1.1710 C.3          1 DM21105   0.0000
    17 O12         34.5110   -24.1020    -1.1060 O.3          1 DM21105   0.0000
    18 C13         32.4480   -25.3370    -0.6690 C.2          1 DM21105   0.0000
    19 O13         32.6140   -25.7090     0.4690 O.2          1 DM21105   0.0000
    20 C14         31.5780   -26.1420    -1.6220 C.3          1 DM21105   0.0000
    21 O14         31.0870   -27.2630    -1.0160 O.3          1 DM21105   0.0000
    22 C15         32.6070   -22.8560    -0.4090 C.3          1 DM21105   0.0000
    23 C16         33.1400   -21.5160    -0.9570 C.ar         1 DM21105   0.0000
    24 C17         33.2890   -20.4590     0.0220 C.ar         1 DM21105   0.0000
    25 O17         32.9460   -20.7230     1.3260 O.3          1 DM21105   0.0000
    26 C18         33.7820   -19.1790    -0.4080 C.ar         1 DM21105   0.0000
    27 C19         33.9420   -18.0660     0.5820 C.ar         1 DM21105   0.0000
    28 O19         33.6200   -18.2770     1.8870 O.3          1 DM21105   0.0000
    29 C20         34.4570   -16.7260     0.1620 C.ar         1 DM21105   0.0000
    30 C21         35.8920   -13.3360    -2.9930 C.3          1 DM21105   0.0000
    31 C1'         34.5840   -22.4760    -5.2770 C.3          1 DM21105   0.0000
    32 C2'         35.6640   -21.3780    -5.4920 C.3          1 DM21105   0.0000
    33 C3'         36.7350   -21.9960    -4.6100 C.3          1 DM21105   0.0000
    34 N3'         37.9180   -21.1330    -4.4220 N.4          1 DM21105   1.0000
    35 C4'         37.1280   -23.3880    -5.1090 C.3          1 DM21105   0.0000
    36 O4'         38.5110   -23.4350    -5.3550 O.3          1 DM21105   0.0000
    37 C5'         36.3220   -23.7810    -6.2690 C.3          1 DM21105   0.0000
    38 O5'         34.9310   -23.6100    -6.0650 O.3          1 DM21105   0.0000
    39 C6'         36.7420   -23.0100    -7.5220 C.3          1 DM21105   0.0000
    40 H1          34.2928   -16.0125     2.1083 H            1 DM21105   0.0000
    41 H2          35.0924   -13.8215     1.6685 H            1 DM21105   0.0000
    42 H3          35.7296   -13.2230    -0.5742 H            1 DM21105   0.0000
    43 H4          35.3259   -16.4180    -3.7760 H            1 DM21105   0.0000
    44 H5          34.6493   -18.8798    -4.3288 H            1 DM21105   0.0000
    45 H6          32.6575   -22.1733    -3.9783 H            1 DM21105   0.0000
    46 H7          32.9887   -24.5273    -3.1820 H            1 DM21105   0.0000
    47 H8          31.7098   -23.6618    -2.6510 H            1 DM21105   0.0000
    48 H9          34.8499   -23.4019    -0.4775 H            1 DM21105   0.0000
    49 H10         32.1257   -26.4126    -2.4137 H            1 DM21105   0.0000
    50 H11         30.8131   -25.5733    -1.9245 H            1 DM21105   0.0000
    51 H12         30.2094   -27.0520    -0.5856 H            1 DM21105   0.0000
    52 H13         32.8904   -22.9464     0.5457 H            1 DM21105   0.0000
    53 H14         31.6084   -22.8481    -0.4609 H            1 DM21105   0.0000
    54 H15         32.6030   -21.6275     1.5795 H            1 DM21105   0.0000
    55 H16         33.2791   -19.1704     2.1797 H            1 DM21105   0.0000
    56 H17         36.1559   -13.2209    -3.9506 H            1 DM21105   0.0000
    57 H18         35.0504   -12.8258    -2.8156 H            1 DM21105   0.0000
    58 H19         36.6216   -12.9912    -2.4024 H            1 DM21105   0.0000
    59 H1'         33.6968   -22.1266    -5.5782 H            1 DM21105   0.0000
    60 H2'1        35.3683   -20.4811    -5.1632 H            1 DM21105   0.0000
    61 H2'2        35.9504   -21.3050    -6.4473 H            1 DM21105   0.0000
    62 H3'         36.3251   -22.1208    -3.7065 H            1 DM21105   0.0000
    63 H3'1        38.5800   -21.5983    -3.8344 H            1 DM21105   0.0000
    64 H3'2        38.3364   -20.9428    -5.3101 H            1 DM21105   0.0000
    65 H4'         36.9318   -24.0367    -4.3737 H            1 DM21105   0.0000
    66 H27         38.9877   -23.7228    -4.5244 H            1 DM21105   0.0000
    67 H5'         36.4875   -24.7524    -6.4396 H            1 DM21105   0.0000
    68 H6'1        36.1770   -23.2976    -8.2954 H            1 DM21105   0.0000
    69 H6'2        36.6203   -22.0297    -7.3666 H            1 DM21105   0.0000
    70 H6'3        37.7032   -23.1988    -7.7230 H            1 DM21105   0.0000
    71 H3'3        37.6389   -20.2734    -3.9941 H            1 DM21105   0.0000
@<TRIPOS>BOND
     1    1    2      ar
     2    1   29      ar
     3    2    3      ar
     4    3    4      ar
     5    4    5       1
     6    4    6      ar
     7    5   30       1
     8    6    7      ar
     9    6   29      ar
    10    7    8       1
    11    7    9      ar
    12    9   10      ar
    13    9   26      ar
    14   10   11       1
    15   10   12      ar
    16   12   13       1
    17   12   23      ar
    18   13   14       1
    19   13   15       1
    20   14   31       1
    21   15   16       1
    22   16   17       1
    23   16   18       1
    24   16   22       1
    25   18   19       2
    26   18   20       1
    27   20   21       1
    28   22   23       1
    29   23   24      ar
    30   24   25       1
    31   24   26      ar
    32   26   27      ar
    33   27   28       1
    34   27   29      ar
    35   31   32       1
    36   31   38       1
    37   32   33       1
    38   33   34       1
    39   33   35       1
    40   35   36       1
    41   35   37       1
    42   37   38       1
    43   37   39       1
    44    1   40       1
    45    2   41       1
    46    3   42       1
    47    8   43       1
    48   11   44       1
    49   13   45       1
    50   15   46       1
    51   15   47       1
    52   17   48       1
    53   20   49       1
    54   20   50       1
    55   21   51       1
    56   22   52       1
    57   22   53       1
    58   25   54       1
    59   28   55       1
    60   30   56       1
    61   30   57       1
    62   30   58       1
    63   31   59       1
    64   32   60       1
    65   32   61       1
    66   33   62       1
    67   34   63       1
    68   34   64       1
    69   35   65       1
    70   36   66       1
    71   37   67       1
    72   39   68       1
    73   39   69       1
    74   39   70       1
    75   34   71       1
@<TRIPOS>SUBSTRUCTURE
     1 DM21105     1 GROUP             4 A     DM2     0 **** DM2 A1105
