@<TRIPOS>MOLECULE
4rht_5GP_3_ligand
   36    38     1     0     0
SMALL
NO_CHARGES


@<TRIPOS>ATOM
     1 P           44.9740    86.3010    -0.3290 P.3          1 5GP302   0.0000
     2 O1P         45.7930    85.9330    -1.5430 O.co2        1 5GP302   0.0000
     3 O2P         44.0300    85.2150     0.1310 O.co2        1 5GP302  -1.0000
     4 O3P         45.7500    86.9520     0.7910 O.co2        1 5GP302  -1.0000
     5 O5'         44.0030    87.4500    -0.8580 O.3          1 5GP302   0.0000
     6 C5'         43.8310    87.6760    -2.2500 C.3          1 5GP302   0.0000
     7 C4'         42.5470    87.0720    -2.7610 C.3          1 5GP302   0.0000
     8 O4'         42.4080    87.3630    -4.1720 O.3          1 5GP302   0.0000
     9 C3'         42.4600    85.5570    -2.6900 C.3          1 5GP302   0.0000
    10 O3'         42.0910    85.0860    -1.4060 O.3          1 5GP302   0.0000
    11 C2'         41.4490    85.2180    -3.7820 C.3          1 5GP302   0.0000
    12 O2'         40.1210    85.3770    -3.3060 O.3          1 5GP302   0.0000
    13 C1'         41.7230    86.3110    -4.8170 C.3          1 5GP302   0.0000
    14 N9          42.5520    85.8250    -5.9370 N.pl3        1 5GP302   0.0000
    15 C8          43.4260    84.8090    -5.9080 C.2          1 5GP302   0.0000
    16 N7          43.9910    84.6810    -7.1310 N.2          1 5GP302   0.0000
    17 C5          43.4610    85.6320    -7.9270 C.2          1 5GP302   0.0000
    18 C6          43.6480    85.9840    -9.2570 C.2          1 5GP302   0.0000
    19 O6          44.4600    85.3540    -9.9710 O.2          1 5GP302   0.0000
    20 N1          42.9520    87.0070    -9.7700 N.2          1 5GP302   0.0000
    21 C2          42.0790    87.6930    -9.0180 C.2          1 5GP302   0.0000
    22 N2          41.3860    88.7230    -9.5600 N.pl3        1 5GP302   0.0000
    23 N3          41.8750    87.3740    -7.7230 N.pl3        1 5GP302   0.0000
    24 C4          42.5580    86.3490    -7.1640 C.2          1 5GP302   0.0000
    25 H5'1        44.5995    87.2666    -2.7418 H            1 5GP302   0.0000
    26 H5'2        43.8146    88.6616    -2.4183 H            1 5GP302   0.0000
    27 H4'         41.7753    87.4700    -2.2649 H            1 5GP302   0.0000
    28 H3'         43.3478    85.1682    -2.9364 H            1 5GP302   0.0000
    29 H5          42.9133    84.9345    -0.8575 H            1 5GP302   0.0000
    30 H2'         41.6015    84.3041    -4.1582 H            1 5GP302   0.0000
    31 H7          39.4760    85.1503    -4.0357 H            1 5GP302   0.0000
    32 H1'         40.8537    86.6530    -5.1739 H            1 5GP302   0.0000
    33 H9          43.6277    84.2384    -5.1120 H            1 5GP302   0.0000
    34 H10         40.7344    89.2361    -9.0013 H            1 5GP302   0.0000
    35 H11         41.5260    88.9702   -10.5188 H            1 5GP302   0.0000
    36 H12         41.2192    87.8951    -7.1767 H            1 5GP302   0.0000
@<TRIPOS>BOND
     1    1    2      ar
     2    1    3      ar
     3    1    4      ar
     4    1    5       1
     5    5    6       1
     6    6    7       1
     7    7    8       1
     8    7    9       1
     9    8   13       1
    10    9   10       1
    11    9   11       1
    12   11   12       1
    13   11   13       1
    14   13   14       1
    15   14   15       1
    16   14   24       1
    17   15   16       2
    18   16   17       1
    19   17   18       1
    20   17   24       2
    21   18   19       2
    22   18   20       1
    23   20   21       2
    24   21   22       1
    25   21   23       1
    26   23   24       1
    27   22   35       1
    28   22   34       1
    29    6   25       1
    30    6   26       1
    31    7   27       1
    32    9   28       1
    33   10   29       1
    34   11   30       1
    35   12   31       1
    36   13   32       1
    37   15   33       1
    38   23   36       1
@<TRIPOS>SUBSTRUCTURE
     1 5GP302      1 GROUP             4 C     5GP     0 **** 5GP C 302
