@<TRIPOS>MOLECULE
2ntv_P1H_1_ligand
  113   118     1     0     0
SMALL
NO_CHARGES


@<TRIPOS>ATOM
     1 O9          -4.3930    -1.7120    34.6990 O.co2        1 P1H300   0.0000
     2 P2          -5.3950    -2.8120    34.8520 P.3          1 P1H300   0.0000
     3 O8          -4.9980    -4.0670    35.5830 O.co2        1 P1H300  -1.0000
     4 O7          -6.7210    -2.2500    35.5830 O.3          1 P1H300   0.0000
     5 P1          -7.2290    -0.7120    35.6770 P.3          1 P1H300   0.0000
     6 O2          -6.2060     0.2640    36.1590 O.co2        1 P1H300   0.0000
     7 O3          -7.4590    -0.3500    34.1260 O.3          1 P1H300   0.0000
     8 C1          -8.6330    -0.8160    33.4640 C.3          1 P1H300   0.0000
     9 C2          -8.9730     0.2180    32.4110 C.3          1 P1H300   0.0000
    10 C3          -9.4420     1.5220    33.0660 C.3          1 P1H300   0.0000
    11 O5          -8.5740     2.6030    32.6810 O.3          1 P1H300   0.0000
    12 C4         -10.8530     1.7370    32.5520 C.3          1 P1H300   0.0000
    13 O6         -11.1560     3.1300    32.3720 O.3          1 P1H300   0.0000
    14 C5         -10.7720     0.9550    31.2390 C.3          1 P1H300   0.0000
    15 N1         -12.0910     0.7090    30.6880 N.4          1 P1H300   1.0000
    16 C10        -12.4790     1.1950    29.4050 C.3          1 P1H300   0.0000
    17 N5         -11.7490     2.0510    28.5310 N.4          1 P1H300   1.0000
    18 C9         -12.3880     2.5270    27.3100 C.3          1 P1H300   0.0000
    19 N4         -13.8130     2.2080    27.1980 N.3          1 P1H300   0.0000
    20 C8         -14.5550     1.3210    28.0630 C.3          1 P1H300   0.0000
    21 N3         -15.9700     1.1620    27.9130 N.4          1 P1H300   1.0000
    22 C7         -13.9490     1.0330    29.4000 C.3          1 P1H300   0.0000
    23 N2         -14.3220     0.0880    30.4350 N.4          1 P1H300   1.0000
    24 C6         -13.1840    -0.0460    31.3350 C.3          1 P1H300   0.0000
    25 O4         -10.0590    -0.2310    31.5770 O.3          1 P1H300   0.0000
    26 O1          -8.5710    -0.8180    36.3590 O.co2        1 P1H300  -1.0000
    27 O10         -6.0260    -3.2090    33.4300 O.3          1 P1H300   0.0000
    28 C11         -5.3470    -2.9930    32.1950 C.3          1 P1H300   0.0000
    29 C12         -5.2970    -4.2660    31.3490 C.3          1 P1H300   0.0000
    30 C13         -6.6000    -5.0450    31.2830 C.3          1 P1H300   0.0000
    31 O12         -6.7890    -5.5490    29.9400 O.3          1 P1H300   0.0000
    32 C14         -6.3380    -6.1930    32.2500 C.3          1 P1H300   0.0000
    33 O13         -7.1980    -7.2930    31.9910 O.3          1 P1H300   0.0000
    34 C15         -4.8720    -6.4880    31.9610 C.3          1 P1H300   0.0000
    35 O11         -4.3330    -5.1720    31.9050 O.3          1 P1H300   0.0000
    36 N6          -4.1990    -7.2230    33.0130 N.4          1 P1H300   1.0000
    37 C21         -3.5440    -8.4170    32.5030 C.3          1 P1H300   0.0000
    38 C20         -2.9700    -9.3240    33.5610 C.3          1 P1H300   0.0000
    39 C19         -3.3230    -9.0820    35.0380 C.3          1 P1H300   0.0000
    40 C17         -3.6280    -7.6150    35.3790 C.3          1 P1H300   0.0000
    41 C18         -3.8970    -7.2990    36.8600 C.2          1 P1H300   0.0000
    42 N7          -4.4340    -5.9603    37.0733 N.am         1 P1H300   0.0000
    43 O14         -3.2619    -8.0509    37.9008 O.2          1 P1H300   0.0000
    44 C16         -4.3290    -6.6980    34.3800 C.3          1 P1H300   0.0000
    45 C22         -4.2630   -10.1550    35.5970 C.2          1 P1H300   0.0000
    46 O15         -5.6520    -9.9350    35.7650 O.2          1 P1H300   0.0000
    47 C25         -3.7750   -11.5650    35.7600 C.2          1 P1H300   0.0000
    48 C24         -2.3540   -11.8700    35.3160 C.2          1 P1H300   0.0000
    49 C23         -1.8700   -13.2750    35.4810 C.3          1 P1H300   0.0000
    50 C26         -4.8320   -12.6080    36.0210 C.3          1 P1H300   0.0000
    51 C27         -4.2150   -13.9700    36.2550 C.3          1 P1H300   0.0000
    52 N8          -2.8540   -14.2460    35.8330 N.4          1 P1H300   1.0000
    53 C29         -5.1410   -15.1560    36.2690 C.3          1 P1H300   0.0000
    54 C28         -4.5030   -16.0770    37.3150 C.3          1 P1H300   0.0000
    55 C30         -3.9890   -15.3450    38.5590 C.3          1 P1H300   0.0000
    56 H1          -9.3854    -0.9045    34.1167 H            1 P1H300   0.0000
    57 H2          -8.4585    -1.7020    33.0343 H            1 P1H300   0.0000
    58 H3          -8.1681     0.3976    31.8454 H            1 P1H300   0.0000
    59 H4          -9.4493     1.4241    34.0612 H            1 P1H300   0.0000
    60 H5          -8.5931     2.7078    31.6867 H            1 P1H300   0.0000
    61 H6         -11.5164     1.3135    33.1689 H            1 P1H300   0.0000
    62 H7         -11.5424     3.4990    33.2173 H            1 P1H300   0.0000
    63 H8         -10.2357     1.4809    30.5788 H            1 P1H300   0.0000
    64 H9         -12.2805     0.3490    28.9101 H            1 P1H300   0.0000
    65 H10        -10.9251     1.5553    28.2563 H            1 P1H300   0.0000
    66 H11        -11.9150     2.1159    26.5307 H            1 P1H300   0.0000
    67 H12        -12.2880     3.5213    27.2739 H            1 P1H300   0.0000
    68 H13        -14.2876     0.4653    27.6200 H            1 P1H300   0.0000
    69 H14        -16.1785     0.2046    27.7134 H            1 P1H300   0.0000
    70 H15        -16.4275     1.4333    28.7598 H            1 P1H300   0.0000
    71 H16        -14.1989     1.8806    29.8681 H            1 P1H300   0.0000
    72 H17        -14.5402    -0.7981    30.0260 H            1 P1H300   0.0000
    73 H18        -13.3972     0.3434    32.2310 H            1 P1H300   0.0000
    74 H19        -12.9315    -1.0078    31.4410 H            1 P1H300   0.0000
    75 H20         -4.4122    -2.6940    32.3867 H            1 P1H300   0.0000
    76 H21         -5.8260    -2.2810    31.6817 H            1 P1H300   0.0000
    77 H22         -5.0165    -4.0258    30.4197 H            1 P1H300   0.0000
    78 H23         -7.3759    -4.4872    31.5778 H            1 P1H300   0.0000
    79 H24         -6.3582    -4.9265    29.2866 H            1 P1H300   0.0000
    80 H25         -6.4487    -5.8822    33.1940 H            1 P1H300   0.0000
    81 H26         -7.3744    -7.7860    32.8429 H            1 P1H300   0.0000
    82 H27         -4.7693    -6.9521    31.0812 H            1 P1H300   0.0000
    83 H28         -2.7985    -8.1300    31.9015 H            1 P1H300   0.0000
    84 H29         -4.2150    -8.9390    31.9764 H            1 P1H300   0.0000
    85 H30         -1.9746    -9.2647    33.4863 H            1 P1H300   0.0000
    86 H31         -3.2661   -10.2531    33.3396 H            1 P1H300   0.0000
    87 H32         -2.4614    -9.2569    35.5144 H            1 P1H300   0.0000
    88 H33         -2.7023    -7.2436    35.3070 H            1 P1H300   0.0000
    89 H34         -4.1177    -5.4122    37.8476 H            1 P1H300   0.0000
    90 H35         -5.1187    -5.5903    36.4454 H            1 P1H300   0.0000
    91 H36         -5.2986    -6.6349    34.6166 H            1 P1H300   0.0000
    92 H37         -3.9155    -5.7885    34.4231 H            1 P1H300   0.0000
    93 H38         -1.7662   -11.1595    34.9290 H            1 P1H300   0.0000
    94 H39         -1.1725   -13.2746    36.1976 H            1 P1H300   0.0000
    95 H40         -1.4581   -13.5589    34.6151 H            1 P1H300   0.0000
    96 H41         -5.4422   -12.6583    35.2303 H            1 P1H300   0.0000
    97 H42         -5.3566   -12.3446    36.8306 H            1 P1H300   0.0000
    98 H43         -4.0540   -13.8942    37.2391 H            1 P1H300   0.0000
    99 H44         -2.4487   -14.7695    36.5825 H            1 P1H300   0.0000
   100 H45         -5.1731   -15.5978    35.3725 H            1 P1H300   0.0000
   101 H46         -6.0649   -14.8877    36.5417 H            1 P1H300   0.0000
   102 H47         -3.7328   -16.5512    36.8885 H            1 P1H300   0.0000
   103 H48         -5.1876   -16.7461    37.6042 H            1 P1H300   0.0000
   104 H49         -3.5884   -16.0063    39.1932 H            1 P1H300   0.0000
   105 H50         -3.2942   -14.6780    38.2900 H            1 P1H300   0.0000
   106 H51         -4.7490   -14.8729    39.0058 H            1 P1H300   0.0000
   107 H52        -12.4244     1.5527    31.1087 H            1 P1H300   0.0000
   108 H53        -11.4908     2.8590    29.0606 H            1 P1H300   0.0000
   109 H54        -14.2841     3.0880    27.2587 H            1 P1H300   0.0000
   110 H55        -16.2922     1.7371    27.1610 H            1 P1H300   0.0000
   111 H56        -15.1168     0.4280    30.9376 H            1 P1H300   0.0000
   112 H57         -3.3655    -6.6887    32.8722 H            1 P1H300   0.0000
   113 H58         -2.9435   -14.8318    35.0275 H            1 P1H300   0.0000
@<TRIPOS>BOND
     1    1    2      ar
     2    2    3      ar
     3    2    4       1
     4    2   27       1
     5    4    5       1
     6    5    6      ar
     7    5    7       1
     8    5   26      ar
     9    7    8       1
    10    8    9       1
    11    9   10       1
    12    9   25       1
    13   10   11       1
    14   10   12       1
    15   12   13       1
    16   12   14       1
    17   14   15       1
    18   14   25       1
    19   15   16       1
    20   15   24       1
    21   16   17       1
    22   16   22       1
    23   17   18       1
    24   18   19       1
    25   19   20       1
    26   20   21       1
    27   20   22       1
    28   22   23       1
    29   23   24       1
    30   27   28       1
    31   28   29       1
    32   29   30       1
    33   29   35       1
    34   30   31       1
    35   30   32       1
    36   32   33       1
    37   32   34       1
    38   34   35       1
    39   34   36       1
    40   36   37       1
    41   36   44       1
    42   37   38       1
    43   38   39       1
    44   39   40       1
    45   39   45       1
    46   40   41       1
    47   40   44       1
    48   41   42      am
    49   41   43       2
    50   45   46       2
    51   45   47       1
    52   47   48       2
    53   47   50       1
    54   48   49       1
    55   49   52       1
    56   50   51       1
    57   51   52       1
    58   51   53       1
    59   53   54       1
    60   54   55       1
    61   55  106       1
    62   55  105       1
    63    8   56       1
    64    8   57       1
    65    9   58       1
    66   10   59       1
    67   11   60       1
    68   12   61       1
    69   13   62       1
    70   14   63       1
    71   16   64       1
    72   17   65       1
    73   18   66       1
    74   18   67       1
    75   52  113       1
    76   20   68       1
    77   21   69       1
    78   21   70       1
    79   22   71       1
    80   23   72       1
    81   24   73       1
    82   24   74       1
    83   28   75       1
    84   28   76       1
    85   29   77       1
    86   30   78       1
    87   31   79       1
    88   32   80       1
    89   33   81       1
    90   34   82       1
    91   37   83       1
    92   37   84       1
    93   38   85       1
    94   38   86       1
    95   39   87       1
    96   40   88       1
    97   42   89       1
    98   42   90       1
    99   44   91       1
   100   44   92       1
   101   48   93       1
   102   49   94       1
   103   49   95       1
   104   50   96       1
   105   50   97       1
   106   51   98       1
   107   52   99       1
   108   53  100       1
   109   53  101       1
   110   54  102       1
   111   54  103       1
   112   55  104       1
   113   15  107       1
   114   17  108       1
   115   19  109       1
   116   21  110       1
   117   23  111       1
   118   36  112       1
@<TRIPOS>SUBSTRUCTURE
     1 P1H300      1 GROUP             4 A     P1H     0 **** P1H A 300
