@<TRIPOS>MOLECULE
1vhz_APR_1_ligand
   31    33     1     0     0
SMALL
NO_CHARGES


@<TRIPOS>ATOM
     1 N1          44.1060    15.1360   150.6220 N.ar         1 APR197   0.0000
     2 C2          44.5380    16.4190   150.2360 C.ar         1 APR197   0.0000
     3 N3          43.9980    17.2100   149.3070 N.ar         1 APR197   0.0000
     4 C4          42.8710    16.6370   148.6750 C.ar         1 APR197   0.0000
     5 C5          42.3040    15.3730   148.9370 C.ar         1 APR197   0.0000
     6 C6          42.9740    14.5740   149.9850 C.ar         1 APR197   0.0000
     7 N6          42.5610    13.3570   150.3460 N.pl3        1 APR197   0.0000
     8 N7          41.2060    15.1560   148.1210 N.2          1 APR197   0.0000
     9 C8          41.1120    16.2690   147.3820 C.2          1 APR197   0.0000
    10 N9          42.0880    17.1820   147.6800 N.pl3        1 APR197   0.0000
    11 C1'         42.3850    18.6580   147.0660 C.3          1 APR197   0.0000
    12 C2'         42.6880    18.5080   145.5480 C.3          1 APR197   0.0000
    13 O2'         43.6430    19.4840   145.1800 O.3          1 APR197   0.0000
    14 C3'         41.3300    18.8080   144.8130 C.3          1 APR197   0.0000
    15 O3'         41.4670    19.8820   143.8940 O.3          1 APR197   0.0000
    16 O4'         41.1900    19.3800   147.0940 O.3          1 APR197   0.0000
    17 C4'         40.3510    19.1740   145.8530 C.3          1 APR197   0.0000
    18 C5'         39.7490    20.4630   145.4530 C.3          1 APR197   0.0000
    19 H1          45.3406    16.7783   150.7121 H            1 APR197   0.0000
    20 H2          41.7625    12.9484   149.9039 H            1 APR197   0.0000
    21 H3          43.0501    12.8540   151.0586 H            1 APR197   0.0000
    22 H4          40.4066    16.4170   146.6888 H            1 APR197   0.0000
    23 H1'         43.1212    19.1280   147.5530 H            1 APR197   0.0000
    24 H2'         43.0154    17.5872   145.3362 H            1 APR197   0.0000
    25 H7          44.4598    19.0324   144.8210 H            1 APR197   0.0000
    26 H3'         41.0194    17.9889   144.3307 H            1 APR197   0.0000
    27 H9          42.4083    20.2191   143.9132 H            1 APR197   0.0000
    28 H4'         39.6600    18.4629   145.9827 H            1 APR197   0.0000
    29 H5'1        39.0769    20.7439   146.1381 H            1 APR197   0.0000
    30 H5'2        40.4647    21.1579   145.3837 H            1 APR197   0.0000
    31 H5'3        39.2980    20.3594   144.5665 H            1 APR197   0.0000
@<TRIPOS>BOND
     1    1    2      ar
     2    1    6      ar
     3    2    3      ar
     4    3    4      ar
     5    4    5      ar
     6    4   10       1
     7    5    6      ar
     8    5    8       1
     9    6    7       1
    10    8    9       2
    11    9   10       1
    12   10   11       1
    13   11   12       1
    14   11   16       1
    15   12   13       1
    16   12   14       1
    17   14   15       1
    18   14   17       1
    19   16   17       1
    20   17   18       1
    21    2   19       1
    22    7   20       1
    23    7   21       1
    24    9   22       1
    25   11   23       1
    26   12   24       1
    27   13   25       1
    28   14   26       1
    29   15   27       1
    30   17   28       1
    31   18   29       1
    32   18   30       1
    33   18   31       1
@<TRIPOS>SUBSTRUCTURE
     1 APR197      1 GROUP             4 A     APR     0 **** APR A 197
