@<TRIPOS>MOLECULE
2zx7_ZX7_1_ligand
   45    47     1     0     0
SMALL
NO_CHARGES


@<TRIPOS>ATOM
     1 OAD         -3.2430    25.8470    24.3060 O.3          1 ZX7901   0.0000
     2 CAV         -1.9120    26.3630    24.3570 C.3          1 ZX7901   0.0000
     3 CAW         -1.7970    27.5880    23.4480 C.3          1 ZX7901   0.0000
     4 OAE         -2.2300    27.2390    22.1340 O.3          1 ZX7901   0.0000
     5 CAU         -0.3380    28.0440    23.4370 C.3          1 ZX7901   0.0000
     6 OAC          0.4580    27.0320    22.8150 O.3          1 ZX7901   0.0000
     7 CAS          0.1500    28.3030    24.8680 C.3          1 ZX7901   0.0000
     8 CAA          1.6530    28.5840    24.8770 C.3          1 ZX7901   0.0000
     9 NAM         -0.1070    27.1590    25.7590 N.4          1 ZX7901   1.0000
    10 CAT         -1.5280    26.7730    25.7820 C.3          1 ZX7901   0.0000
    11 CAK         -1.7330    25.5940    26.7360 C.3          1 ZX7901   0.0000
    12 NAL         -1.6190    25.9790    28.1510 N.am         1 ZX7901   0.0000
    13 CAO         -1.4190    25.0280    29.0620 C.2          1 ZX7901   0.0000
    14 OAB         -1.2690    23.8370    28.7850 O.2          1 ZX7901   0.0000
    15 CAP         -1.3280    25.4520    30.5310 C.2          1 ZX7901   0.0000
    16 CAJ         -1.7870    24.6740    31.5050 C.2          1 ZX7901   0.0000
    17 CAQ         -1.5800    25.3220    32.6470 C.ar         1 ZX7901   0.0000
    18 CAH         -1.9100    25.0050    33.9600 C.ar         1 ZX7901   0.0000
    19 CAF         -1.6150    25.9060    34.9770 C.ar         1 ZX7901   0.0000
    20 CAG         -0.9870    27.1070    34.6600 C.ar         1 ZX7901   0.0000
    21 CAI         -0.6540    27.4250    33.3460 C.ar         1 ZX7901   0.0000
    22 CAR         -0.9600    26.5270    32.3300 C.ar         1 ZX7901   0.0000
    23 NAN         -0.8230    26.5860    31.0080 N.pl3        1 ZX7901   0.0000
    24 HAD         -3.2224    24.9040    23.9740 H            1 ZX7901   0.0000
    25 HAV         -1.2771    25.6594    24.0379 H            1 ZX7901   0.0000
    26 HAW         -2.3734    28.3232    23.8047 H            1 ZX7901   0.0000
    27 HAE         -2.1566    28.0370    21.5359 H            1 ZX7901   0.0000
    28 HAU         -0.2637    28.8895    22.9082 H            1 ZX7901   0.0000
    29 HAC          1.2446    27.4558    22.3659 H            1 ZX7901   0.0000
    30 HAS         -0.3277    29.1039    25.2292 H            1 ZX7901   0.0000
    31 HAA1         1.9554    28.7506    25.8155 H            1 ZX7901   0.0000
    32 HAA2         2.1418    27.7952    24.5044 H            1 ZX7901   0.0000
    33 HAA3         1.8448    29.3900    24.3170 H            1 ZX7901   0.0000
    34 HAM1         0.1739    27.4051    26.6866 H            1 ZX7901   0.0000
    35 HAT         -2.0867    27.5489    26.0750 H            1 ZX7901   0.0000
    36 HAK1        -1.0423    24.8986    26.5375 H            1 ZX7901   0.0000
    37 HAK2        -2.6443    25.2125    26.5812 H            1 ZX7901   0.0000
    38 HAL         -1.6904    26.9382    28.4244 H            1 ZX7901   0.0000
    39 HAJ         -2.2078    23.7730    31.3993 H            1 ZX7901   0.0000
    40 HAH         -2.3562    24.1354    34.1713 H            1 ZX7901   0.0000
    41 HAF         -1.8513    25.6936    35.9252 H            1 ZX7901   0.0000
    42 HAG         -0.7706    27.7545    35.3907 H            1 ZX7901   0.0000
    43 HAI         -0.1994    28.2904    33.1353 H            1 ZX7901   0.0000
    44 HAN         -0.4209    27.3333    30.4790 H            1 ZX7901   0.0000
    45 HAM2         0.4326    26.3786    25.4433 H            1 ZX7901   0.0000
@<TRIPOS>BOND
     1    1    2       1
     2    2    3       1
     3    2   10       1
     4    3    4       1
     5    3    5       1
     6    5    6       1
     7    5    7       1
     8    7    8       1
     9    7    9       1
    10    9   10       1
    11   10   11       1
    12   11   12       1
    13   12   13      am
    14   13   14       2
    15   13   15       1
    16   15   16       2
    17   15   23       1
    18   16   17       1
    19   17   18      ar
    20   17   22      ar
    21   18   19      ar
    22   19   20      ar
    23   20   21      ar
    24   21   22      ar
    25   22   23       1
    26    1   24       1
    27    2   25       1
    28    3   26       1
    29    4   27       1
    30    5   28       1
    31    6   29       1
    32    7   30       1
    33    8   31       1
    34    8   32       1
    35    8   33       1
    36    9   34       1
    37   10   35       1
    38   11   36       1
    39   11   37       1
    40   12   38       1
    41   16   39       1
    42   18   40       1
    43   19   41       1
    44   20   42       1
    45   21   43       1
    46   23   44       1
    47    9   45       1
@<TRIPOS>SUBSTRUCTURE
     1 ZX7901      1 GROUP             4 A     ZX7     0 **** ZX7 A 901
