@<TRIPOS>MOLECULE
2r6r_GDP_1_ligand
   40    42     1     0     0
SMALL
NO_CHARGES


@<TRIPOS>ATOM
     1 PB          -7.5020    -2.5460     8.1570 P.3          1 GDP339   0.0000
     2 O1B         -8.5850    -2.8150     7.1420 O.co2        1 GDP339   0.0000
     3 O2B         -7.3470    -1.0770     8.3820 O.co2        1 GDP339  -1.0000
     4 O3B         -6.2320    -3.2440     7.8040 O.co2        1 GDP339  -1.0000
     5 O3A         -8.0070    -3.1830     9.5430 O.3          1 GDP339   0.0000
     6 PA          -7.3180    -2.8900    10.9680 P.3          1 GDP339   0.0000
     7 O1A         -5.8280    -2.7120    10.8410 O.co2        1 GDP339   0.0000
     8 O2A         -8.0420    -1.7500    11.6720 O.co2        1 GDP339  -1.0000
     9 O5'         -7.6840    -4.2070    11.7620 O.3          1 GDP339   0.0000
    10 C5'         -7.0450    -5.4320    11.4350 C.3          1 GDP339   0.0000
    11 C4'         -6.4670    -6.0880    12.6810 C.3          1 GDP339   0.0000
    12 O4'         -5.5100    -5.2190    13.2780 O.3          1 GDP339   0.0000
    13 C3'         -7.5480    -6.2820    13.7380 C.3          1 GDP339   0.0000
    14 O3'         -8.2560    -7.4910    13.5110 O.3          1 GDP339   0.0000
    15 C2'         -6.7910    -6.2440    15.0630 C.3          1 GDP339   0.0000
    16 O2'         -6.3550    -7.5400    15.5090 O.3          1 GDP339   0.0000
    17 C1'         -5.6010    -5.3460    14.7030 C.3          1 GDP339   0.0000
    18 N9          -5.7070    -4.0040    15.3000 N.pl3        1 GDP339   0.0000
    19 C8          -6.7910    -3.1880    15.3600 C.2          1 GDP339   0.0000
    20 N7          -6.4690    -2.0230    15.9850 N.2          1 GDP339   0.0000
    21 C5          -5.1740    -2.1200    16.3420 C.2          1 GDP339   0.0000
    22 C6          -4.2180    -1.2490    17.0420 C.2          1 GDP339   0.0000
    23 O6          -4.5820    -0.1360    17.4740 O.2          1 GDP339   0.0000
    24 N1          -2.9700    -1.7050    17.2030 N.pl3        1 GDP339   0.0000
    25 C2          -2.5620    -2.9190    16.7580 C.2          1 GDP339   0.0000
    26 N2          -1.2840    -3.3230    16.9720 N.pl3        1 GDP339   0.0000
    27 N3          -3.3850    -3.7790    16.1140 N.2          1 GDP339   0.0000
    28 C4          -4.6830    -3.4150    15.8840 C.2          1 GDP339   0.0000
    29 H5'1        -6.3060    -5.2534    10.7854 H            1 GDP339   0.0000
    30 H5'2        -7.7126    -6.0494    11.0188 H            1 GDP339   0.0000
    31 H4'         -6.0450    -6.9645    12.4494 H            1 GDP339   0.0000
    32 H3'         -8.1870    -5.5137    13.7011 H            1 GDP339   0.0000
    33 H5          -8.9600    -7.6018    14.2125 H            1 GDP339   0.0000
    34 H2'         -7.3511    -5.8078    15.7673 H            1 GDP339   0.0000
    35 H7          -7.0654    -7.9527    16.0792 H            1 GDP339   0.0000
    36 H1'         -4.7637    -5.7780    15.0380 H            1 GDP339   0.0000
    37 H9          -7.6957    -3.4112    14.9971 H            1 GDP339   0.0000
    38 H10         -2.3071    -1.1228    17.6738 H            1 GDP339   0.0000
    39 H11         -0.9811    -4.2180    16.6446 H            1 GDP339   0.0000
    40 H12         -0.6454    -2.7256    17.4571 H            1 GDP339   0.0000
@<TRIPOS>BOND
     1    1    2      ar
     2    1    3      ar
     3    1    4      ar
     4    1    5       1
     5    5    6       1
     6    6    7      ar
     7    6    8      ar
     8    6    9       1
     9    9   10       1
    10   10   11       1
    11   11   12       1
    12   11   13       1
    13   12   17       1
    14   13   14       1
    15   13   15       1
    16   15   16       1
    17   15   17       1
    18   17   18       1
    19   18   19       1
    20   18   28       1
    21   19   20       2
    22   20   21       1
    23   21   22       1
    24   21   28       2
    25   22   23       2
    26   22   24       1
    27   24   25       1
    28   25   26       1
    29   25   27       2
    30   27   28       1
    31   26   40       1
    32   26   39       1
    33   24   38       1
    34   10   29       1
    35   10   30       1
    36   11   31       1
    37   13   32       1
    38   14   33       1
    39   15   34       1
    40   16   35       1
    41   17   36       1
    42   19   37       1
@<TRIPOS>SUBSTRUCTURE
     1 GDP339      1 GROUP             4 1     GDP     0 **** GDP 1 339
