@<TRIPOS>MOLECULE
3qv2_SAH_1_ligand
   46    48     1     0     0
SMALL
NO_CHARGES


@<TRIPOS>ATOM
     1 N           12.9780   -20.5850    19.5840 N.4          1 SAH323   1.0000
     2 CA          14.0920   -19.6610    19.6750 C.3          1 SAH323   0.0000
     3 CB          15.2880   -20.1700    18.8820 C.3          1 SAH323   0.0000
     4 CG          15.4590   -21.6580    18.6950 C.3          1 SAH323   0.0000
     5 SD          16.8390   -22.2110    17.6730 S.3          1 SAH323   0.0000
     6 C           13.6520   -18.3010    19.1950 C.2          1 SAH323   0.0000
     7 O           14.5000   -17.5060    18.6990 O.co2        1 SAH323   0.0000
     8 OXT         12.4260   -17.9540    19.2950 O.co2        1 SAH323  -1.0000
     9 C5'         17.8390   -23.3510    18.6050 C.3          1 SAH323   0.0000
    10 C4'         18.7920   -22.7980    19.6000 C.3          1 SAH323   0.0000
    11 O4'         19.2650   -23.8390    20.3810 O.3          1 SAH323   0.0000
    12 C3'         19.9430   -22.2140    18.9080 C.3          1 SAH323   0.0000
    13 O3'         19.9440   -20.8380    19.0800 O.3          1 SAH323   0.0000
    14 C2'         21.1280   -22.7870    19.4930 C.3          1 SAH323   0.0000
    15 O2'         22.0150   -21.7840    19.8450 O.3          1 SAH323   0.0000
    16 C1'         20.6530   -23.4950    20.6850 C.3          1 SAH323   0.0000
    17 N9          21.4970   -24.6090    21.0110 N.pl3        1 SAH323   0.0000
    18 C8          21.9740   -25.5930    20.2370 C.2          1 SAH323   0.0000
    19 N7          22.7160   -26.3930    21.0200 N.2          1 SAH323   0.0000
    20 C5          22.7000   -25.9000    22.2820 C.ar         1 SAH323   0.0000
    21 C6          23.2850   -26.3130    23.4810 C.ar         1 SAH323   0.0000
    22 N6          24.1070   -27.4970    23.5310 N.pl3        1 SAH323   0.0000
    23 N1          23.0640   -25.5770    24.5850 N.ar         1 SAH323   0.0000
    24 C2          22.3050   -24.4730    24.5620 C.ar         1 SAH323   0.0000
    25 N3          21.7340   -24.0600    23.4250 N.ar         1 SAH323   0.0000
    26 C4          21.9150   -24.7480    22.2830 C.ar         1 SAH323   0.0000
    27 H1          13.0358   -21.2511    20.3276 H            1 SAH323   0.0000
    28 H2          12.1185   -20.0790    19.6558 H            1 SAH323   0.0000
    29 HA          14.3602   -19.5845    20.6353 H            1 SAH323   0.0000
    30 HB1         16.1098   -19.8358    19.3434 H            1 SAH323   0.0000
    31 HB2         15.2295   -19.7643    17.9698 H            1 SAH323   0.0000
    32 HG1         14.6190   -22.0069    18.2796 H            1 SAH323   0.0000
    33 HG2         15.5756   -22.0631    19.6018 H            1 SAH323   0.0000
    34 H5'1        18.3725   -23.8832    17.9476 H            1 SAH323   0.0000
    35 H5'2        17.2154   -23.9581    19.0975 H            1 SAH323   0.0000
    36 H4'         18.3418   -22.1106    20.1700 H            1 SAH323   0.0000
    37 H3'         19.9029   -22.4354    17.9336 H            1 SAH323   0.0000
    38 H12         20.0004   -20.6240    20.0552 H            1 SAH323   0.0000
    39 H2'         21.5584   -23.4260    18.8555 H            1 SAH323   0.0000
    40 H14         21.8319   -21.4913    20.7835 H            1 SAH323   0.0000
    41 H1'         20.6594   -22.8573    21.4552 H            1 SAH323   0.0000
    42 H16         21.8083   -25.7101    19.2578 H            1 SAH323   0.0000
    43 H17         24.5204   -27.7825    24.3956 H            1 SAH323   0.0000
    44 H18         24.2635   -28.0324    22.7011 H            1 SAH323   0.0000
    45 H19         22.1639   -23.9522    25.4039 H            1 SAH323   0.0000
    46 H20         13.0116   -21.0621    18.7058 H            1 SAH323   0.0000
@<TRIPOS>BOND
     1    1    2       1
     2    2    3       1
     3    2    6       1
     4    3    4       1
     5    4    5       1
     6    5    9       1
     7    6    7      ar
     8    6    8      ar
     9    9   10       1
    10   10   11       1
    11   10   12       1
    12   11   16       1
    13   12   13       1
    14   12   14       1
    15   14   15       1
    16   14   16       1
    17   16   17       1
    18   17   18       1
    19   17   26       1
    20   18   19       2
    21   19   20       1
    22   20   21      ar
    23   20   26      ar
    24   21   22       1
    25   21   23      ar
    26   23   24      ar
    27   24   25      ar
    28   25   26      ar
    29    1   27       1
    30    1   28       1
    31    2   29       1
    32    3   30       1
    33    3   31       1
    34    4   32       1
    35    4   33       1
    36    1   46       1
    37    9   34       1
    38    9   35       1
    39   10   36       1
    40   12   37       1
    41   13   38       1
    42   14   39       1
    43   15   40       1
    44   16   41       1
    45   18   42       1
    46   22   43       1
    47   22   44       1
    48   24   45       1
@<TRIPOS>SUBSTRUCTURE
     1 SAH323      1 GROUP             4 A     SAH     0 **** SAH A 323
