@<TRIPOS>MOLECULE
3stj_UNK_UNK_UNK_UNK_UNK_9_ligand
   53    52     5     0     0
SMALL
NO_CHARGES


@<TRIPOS>ATOM
     1 N          -26.2750    68.1870   -85.9810 N.4          1 UNK401   1.0000
     2 CA         -27.4470    69.0030   -86.3090 C.3          1 UNK401   0.0000
     3 C          -28.3930    69.1600   -85.0910 C.2          1 UNK401   0.0000
     4 O          -28.2950    68.3750   -84.1340 O.2          1 UNK401   0.0000
     5 CB         -28.1980    68.3910   -87.4850 C.3          1 UNK401   0.0000
     6 H1         -25.6885    68.1069   -86.7870 H            1 UNK401   0.0000
     7 H2         -25.7641    68.6206   -85.2387 H            1 UNK401   0.0000
     8 HA         -27.1301    69.9123   -86.5787 H            1 UNK401   0.0000
     9 HB1        -28.9953    68.9546   -87.7010 H            1 UNK401   0.0000
    10 HB2        -27.5939    68.3492   -88.2808 H            1 UNK401   0.0000
    11 HB3        -28.4976    67.4676   -87.2450 H            1 UNK401   0.0000
    12 N          -29.2960    70.1870   -85.1310 N.am         2 UNK402   0.0000
    13 CA         -30.2700    70.4810   -84.0740 C.3          2 UNK402   0.0000
    14 C          -31.4320    69.5050   -84.1060 C.2          2 UNK402   0.0000
    15 O          -32.1330    69.4070   -85.1190 O.2          2 UNK402   0.0000
    16 CB         -30.8000    71.9060   -84.2030 C.3          2 UNK402   0.0000
    17 H7         -29.2918    70.7787   -85.9371 H            2 UNK402   0.0000
    18 H8         -29.8107    70.3948   -83.1899 H            2 UNK402   0.0000
    19 H9         -31.4607    72.0832   -83.4736 H            2 UNK402   0.0000
    20 H10        -30.0404    72.5521   -84.1289 H            2 UNK402   0.0000
    21 H11        -31.2462    72.0166   -85.0911 H            2 UNK402   0.0000
    22 N          -31.6390    68.7860   -82.9960 N.am         3 UNK403   0.0000
    23 CA         -32.7740    67.8850   -82.8660 C.3          3 UNK403   0.0000
    24 C          -33.8230    68.5580   -81.9950 C.2          3 UNK403   0.0000
    25 O          -33.4710    69.3560   -81.1270 O.2          3 UNK403   0.0000
    26 CB         -32.3480    66.5470   -82.2820 C.3          3 UNK403   0.0000
    27 H12        -30.9957    68.8705   -82.2350 H            3 UNK403   0.0000
    28 H13        -33.1640    67.7285   -83.7734 H            3 UNK403   0.0000
    29 H14        -33.1453    65.9485   -82.2037 H            3 UNK403   0.0000
    30 H15        -31.6699    66.1222   -82.8818 H            3 UNK403   0.0000
    31 H16        -31.9487    66.6905   -81.3765 H            3 UNK403   0.0000
    32 N          -35.1110    68.2890   -82.2650 N.am         4 UNK404   0.0000
    33 CA         -36.1920    68.8620   -81.4790 C.3          4 UNK404   0.0000
    34 C          -36.3700    68.0670   -80.1740 C.2          4 UNK404   0.0000
    35 O          -36.2000    66.8420   -80.1460 O.2          4 UNK404   0.0000
    36 CB         -37.4840    68.8960   -82.2830 C.3          4 UNK404   0.0000
    37 H17        -35.3322    67.6791   -83.0260 H            4 UNK404   0.0000
    38 H18        -35.9445    69.8017   -81.2428 H            4 UNK404   0.0000
    39 H19        -38.2132    69.2927   -81.7255 H            4 UNK404   0.0000
    40 H20        -37.3515    69.4522   -83.1034 H            4 UNK404   0.0000
    41 H21        -37.7361    67.9654   -82.5483 H            4 UNK404   0.0000
    42 N          -36.6600    68.7930   -79.0850 N.am         5 UNK405   0.0000
    43 CA         -36.8970    68.2480   -77.7460 C.3          5 UNK405   0.0000
    44 C          -38.1280    68.9120   -77.1090 C.2          5 UNK405   0.0000
    45 O          -38.7500    68.2850   -76.2310 O.2          5 UNK405   0.0000
    46 CB         -35.6680    68.4410   -76.8630 C.3          5 UNK405   0.0000
    47 H22        -36.7192    69.7851   -79.1954 H            5 UNK405   0.0000
    48 H23        -37.0748    67.2676   -77.8306 H            5 UNK405   0.0000
    49 H24        -38.4222    69.8247   -77.3925 H            5 UNK405   0.0000
    50 H25        -35.8477    68.0637   -75.9545 H            5 UNK405   0.0000
    51 H26        -34.8867    67.9690   -77.2714 H            5 UNK405   0.0000
    52 H27        -35.4640    69.4168   -76.7843 H            5 UNK405   0.0000
    53 H28        -26.5726    67.2766   -85.6934 H            5 UNK405   0.0000
@<TRIPOS>BOND
     1    1    2       1
     2    2    3       1
     3    2    5       1
     4    3    4       2
     5    1    6       1
     6    1    7       1
     7    2    8       1
     8    3   12      am
     9    5    9       1
    10    5   10       1
    11    5   11       1
    12   12   13       1
    13   13   14       1
    14   13   16       1
    15   14   15       2
    16   16   21       1
    17   12   17       1
    18   13   18       1
    19   14   22      am
    20   16   19       1
    21   16   20       1
    22   22   23       1
    23   23   24       1
    24   23   26       1
    25   24   25       2
    26   26   31       1
    27   22   27       1
    28   23   28       1
    29   24   32      am
    30   26   29       1
    31   26   30       1
    32   32   33       1
    33   33   34       1
    34   33   36       1
    35   34   35       2
    36   36   41       1
    37   32   37       1
    38   33   38       1
    39   34   42      am
    40   36   39       1
    41   36   40       1
    42   42   43       1
    43   43   44       1
    44   43   46       1
    45   44   45       2
    46   46   52       1
    47   42   47       1
    48   43   48       1
    49   44   49       1
    50   46   50       1
    51   46   51       1
    52    1   53       1
@<TRIPOS>SUBSTRUCTURE
     1 UNK401      1 GROUP             4 U     UNK     0 **** UNK U 401
     2 UNK402     12 GROUP             4 U     UNK     0 **** UNK U 402
     3 UNK403     22 GROUP             4 U     UNK     0 **** UNK U 403
     4 UNK404     32 GROUP             4 U     UNK     0 **** UNK U 404
     5 UNK405     42 GROUP             4 U     UNK     0 **** UNK U 405
