@<TRIPOS>MOLECULE
2d2h_TZZ_1_ligand
   17    16     1     0     0
SMALL
NO_CHARGES


@<TRIPOS>ATOM
     1 C           27.5650    20.9970     1.4610 C.3          1 TZZ901   0.0000
     2 O1          28.4760    20.7420     0.3890 O.3          1 TZZ901   0.0000
     3 P           29.6720    21.7540     0.0390 P.3          1 TZZ901   0.0000
     4 O           30.2180    21.5960    -1.4470 O.2          1 TZZ901   0.0000
     5 O2          29.0540    23.2110     0.2920 O.3          1 TZZ901   0.0000
     6 C1          28.4030    23.8230    -0.8190 C.3          1 TZZ901   0.0000
     7 O3          30.8040    21.5180     1.1540 O.3          1 TZZ901   0.0000
     8 C2          32.1220    21.1560     0.7500 C.3          1 TZZ901   0.0000
     9 H1          26.8982    20.2538     1.5157 H            1 TZZ901   0.0000
    10 H2          28.0709    21.0549     2.3217 H            1 TZZ901   0.0000
    11 H3          27.0888    21.8606     1.2955 H            1 TZZ901   0.0000
    12 H4          28.0581    24.7221    -0.5494 H            1 TZZ901   0.0000
    13 H5          29.0541    23.9274    -1.5708 H            1 TZZ901   0.0000
    14 H6          27.6401    23.2487    -1.1161 H            1 TZZ901   0.0000
    15 H7          32.7005    21.0476     1.5584 H            1 TZZ901   0.0000
    16 H8          32.0907    20.2937     0.2445 H            1 TZZ901   0.0000
    17 H9          32.4995    21.8727     0.1636 H            1 TZZ901   0.0000
@<TRIPOS>BOND
     1    1    2       1
     2    2    3       1
     3    3    4       2
     4    3    5       1
     5    3    7       1
     6    5    6       1
     7    7    8       1
     8    1    9       1
     9    1   10       1
    10    1   11       1
    11    6   12       1
    12    6   13       1
    13    6   14       1
    14    8   15       1
    15    8   16       1
    16    8   17       1
@<TRIPOS>SUBSTRUCTURE
     1 TZZ901      1 GROUP             4 A     TZZ     0 **** TZZ A 901
