@<TRIPOS>MOLECULE
3h23_B54_1_ligand
   38    39     1     0     0
SMALL
NO_CHARGES


@<TRIPOS>ATOM
     1 O22        -78.7880    86.1580   101.2010 O.co2        1 B54511   0.0000
     2 C21        -77.8490    85.3570   101.0800 C.2          1 B54511   0.0000
     3 O23        -77.4620    84.6210   102.0270 O.co2        1 B54511  -1.0000
     4 C18        -77.1040    85.3590    99.7820 C.ar         1 B54511   0.0000
     5 C19        -75.9060    84.6230    99.6930 C.ar         1 B54511   0.0000
     6 C20        -75.1650    84.6380    98.5090 C.ar         1 B54511   0.0000
     7 C17        -77.5390    86.1620    98.7210 C.ar         1 B54511   0.0000
     8 C16        -76.7940    86.1590    97.5440 C.ar         1 B54511   0.0000
     9 C15        -75.5980    85.4180    97.4230 C.ar         1 B54511   0.0000
    10 O14        -74.8800    85.4560    96.2350 O.3          1 B54511   0.0000
    11 C13        -73.5530    84.9670    96.0900 C.3          1 B54511   0.0000
    12 C12        -73.3220    84.6750    94.6210 C.3          1 B54511   0.0000
    13 C11        -74.2340    83.5950    94.0230 C.3          1 B54511   0.0000
    14 N10        -75.5400    84.1280    93.7050 N.pl3        1 B54511   0.0000
    15 C4         -76.2410    83.9210    92.5590 C.2          1 B54511   0.0000
    16 C5         -77.4340    84.7430    92.2340 C.2          1 B54511   0.0000
    17 N9         -77.9520    85.7360    93.0600 N.2          1 B54511   0.0000
    18 O24        -77.3740    86.2230    94.0150 O.2          1 B54511   0.0000
    19 C2         -78.1340    84.4720    90.9770 C.2          1 B54511   0.0000
    20 O8         -79.1580    85.1450    90.7130 O.2          1 B54511   0.0000
    21 N2         -77.7030    83.4560    90.2030 N.pl3        1 B54511   0.0000
    22 C1         -76.6070    82.7520    90.5190 C.2          1 B54511   0.0000
    23 N1         -75.9290    82.9750    91.6600 N.2          1 B54511   0.0000
    24 N7         -76.1430    81.8010    89.7050 N.pl3        1 B54511   0.0000
    25 H1         -75.5864    84.0904   100.4767 H            1 B54511   0.0000
    26 H2         -74.3285    84.0951    98.4343 H            1 B54511   0.0000
    27 H3         -78.3626    86.7228    98.8058 H            1 B54511   0.0000
    28 H4         -77.1147    86.6960    96.7638 H            1 B54511   0.0000
    29 H5         -73.4391    84.1297    96.6248 H            1 B54511   0.0000
    30 H6         -72.9006    85.6558    96.4062 H            1 B54511   0.0000
    31 H7         -72.3740    84.3771    94.5093 H            1 B54511   0.0000
    32 H8         -73.4677    85.5220    94.1097 H            1 B54511   0.0000
    33 H9         -74.3374    82.8527    94.6850 H            1 B54511   0.0000
    34 H10        -73.8145    83.2404    93.1874 H            1 B54511   0.0000
    35 H11        -75.9706    84.7068    94.3975 H            1 B54511   0.0000
    36 H12        -78.2122    83.2223    89.3747 H            1 B54511   0.0000
    37 H13        -75.3240    81.2846    89.9551 H            1 B54511   0.0000
    38 H14        -76.6144    81.6051    88.8451 H            1 B54511   0.0000
@<TRIPOS>BOND
     1    1    2      ar
     2    2    3      ar
     3    2    4       1
     4    4    5      ar
     5    4    7      ar
     6    5    6      ar
     7    6    9      ar
     8    7    8      ar
     9    8    9      ar
    10    9   10       1
    11   10   11       1
    12   11   12       1
    13   12   13       1
    14   13   14       1
    15   14   15       1
    16   15   16       2
    17   15   23       1
    18   16   17       1
    19   16   19       1
    20   17   18       2
    21   19   20       2
    22   19   21       1
    23   21   22       1
    24   22   23       2
    25   22   24       1
    26   24   38       1
    27    5   25       1
    28    6   26       1
    29    7   27       1
    30    8   28       1
    31   11   29       1
    32   11   30       1
    33   12   31       1
    34   12   32       1
    35   13   33       1
    36   13   34       1
    37   14   35       1
    38   21   36       1
    39   24   37       1
@<TRIPOS>SUBSTRUCTURE
     1 B54511      1 GROUP             4 A     B54     0 **** B54 A 511
