@<TRIPOS>MOLECULE
4wri_OKA_1_ligand
  124   130     1     0     0
SMALL
NO_CHARGES


@<TRIPOS>ATOM
     1 C1          25.6640    50.7130    57.6940 C.2          1 OKA201   0.0000
     2 C2          25.6820    51.4380    59.0610 C.3          1 OKA201   0.0000
     3 C3          26.8620    52.4070    59.1180 C.3          1 OKA201   0.0000
     4 C4          26.8430    53.4740    58.0010 C.3          1 OKA201   0.0000
     5 C5          28.1110    54.3120    58.0850 C.3          1 OKA201   0.0000
     6 C6          28.0310    55.5090    57.1350 C.3          1 OKA201   0.0000
     7 C7          26.7220    56.2980    57.3790 C.3          1 OKA201   0.0000
     8 C8          25.5470    55.3420    57.2640 C.3          1 OKA201   0.0000
     9 C9          24.2740    56.0370    57.6540 C.2          1 OKA201   0.0000
    10 C10         23.1670    55.9000    56.9020 C.2          1 OKA201   0.0000
    11 C11         23.1370    55.1240    55.6230 C.3          1 OKA201   0.0000
    12 C12         24.3820    54.1930    55.5810 C.3          1 OKA201   0.0000
    13 C13         24.6130    53.6760    54.1520 C.3          1 OKA201   0.0000
    14 C14         25.8250    52.7130    54.1600 C.2          1 OKA201   0.0000
    15 C15         26.9260    53.0500    53.4870 C.2          1 OKA201   0.0000
    16 C16         28.0890    52.1000    53.5580 C.3          1 OKA201   0.0000
    17 C17         28.7090    51.6770    52.2000 C.3          1 OKA201   0.0000
    18 C18         30.2270    51.6740    52.4570 C.3          1 OKA201   0.0000
    19 C19         30.3480    52.1920    53.9270 C.3          1 OKA201   0.0000
    20 C20         31.5630    52.9890    54.1570 C.3          1 OKA201   0.0000
    21 C21         31.6030    53.4090    55.6510 C.3          1 OKA201   0.0000
    22 C22         31.5500    52.1290    56.4810 C.3          1 OKA201   0.0000
    23 C23         30.2770    51.3460    56.1190 C.3          1 OKA201   0.0000
    24 C24         30.2500    50.0070    56.9280 C.3          1 OKA201   0.0000
    25 C25         30.3830    50.4240    58.3750 C.2          1 OKA201   0.0000
    26 C26         31.5000    51.3450    58.7140 C.3          1 OKA201   0.0000
    27 C27         32.8610    50.6140    58.7140 C.3          1 OKA201   0.0000
    28 C28         32.8760    49.6110    59.8780 C.3          1 OKA201   0.0000
    29 C29         34.2340    48.9350    60.1280 C.3          1 OKA201   0.0000
    30 C30         33.9930    47.8790    61.2480 C.3          1 OKA201   0.0000
    31 C31         33.6410    48.4200    62.6130 C.3          1 OKA201   0.0000
    32 C32         33.6030    47.3160    63.6700 C.3          1 OKA201   0.0000
    33 C33         34.7730    46.3420    63.5930 C.3          1 OKA201   0.0000
    34 C34         35.0620    45.9940    62.1240 C.3          1 OKA201   0.0000
    35 C35         36.4520    45.2670    62.0850 C.3          1 OKA201   0.0000
    36 C36         36.6160    44.6730    60.6910 C.3          1 OKA201   0.0000
    37 C37         35.4450    43.7750    60.4130 C.3          1 OKA201   0.0000
    38 C38         34.1250    44.4960    60.5060 C.3          1 OKA201   0.0000
    39 C39         34.5780    49.5440    63.0550 C.3          1 OKA201   0.0000
    40 C40         34.6760    48.1990    58.8550 C.3          1 OKA201   0.0000
    41 C41         29.5750    50.0160    59.3150 C.2          1 OKA201   0.0000
    42 C42         23.4160    52.8790    53.6680 C.3          1 OKA201   0.0000
    43 C43         21.9410    56.6160    57.4010 C.3          1 OKA201   0.0000
    44 C44         25.7740    50.4160    60.1850 C.3          1 OKA201   0.0000
    45 O1          26.7150    50.1480    57.3880 O.co2        1 OKA201   0.0000
    46 O2          24.6410    50.7470    57.0050 O.co2        1 OKA201  -1.0000
    47 O3          24.4720    52.1680    59.2200 O.3          1 OKA201   0.0000
    48 O4          25.6840    54.2940    58.2050 O.3          1 OKA201   0.0000
    49 O5          26.6450    57.3790    56.4140 O.3          1 OKA201   0.0000
    50 O6          25.5130    54.8620    55.9200 O.3          1 OKA201   0.0000
    51 O7          29.1180    52.8310    54.1540 O.3          1 OKA201   0.0000
    52 O8          30.3330    50.9930    54.7460 O.3          1 OKA201   0.0000
    53 O9          31.5460    52.5000    57.8620 O.3          1 OKA201   0.0000
    54 O10         29.1010    49.3090    56.6350 O.3          1 OKA201   0.0000
    55 O11         33.8710    51.5900    58.9150 O.3          1 OKA201   0.0000
    56 O12         35.2190    47.0920    61.3150 O.3          1 OKA201   0.0000
    57 O13         33.9990    45.1240    61.8310 O.3          1 OKA201   0.0000
    58 H1          27.7078    51.8798    59.0368 H            1 OKA201   0.0000
    59 H2          26.8443    52.8746    60.0018 H            1 OKA201   0.0000
    60 H3          26.7898    53.0283    57.1074 H            1 OKA201   0.0000
    61 H4          28.8961    53.7457    57.8343 H            1 OKA201   0.0000
    62 H5          28.2244    54.6432    59.0217 H            1 OKA201   0.0000
    63 H6          28.0487    55.1825    56.1900 H            1 OKA201   0.0000
    64 H7          28.8139    56.1104    57.2946 H            1 OKA201   0.0000
    65 H8          26.7402    56.6840    58.3013 H            1 OKA201   0.0000
    66 H9          24.2492    56.6045    58.4770 H            1 OKA201   0.0000
    67 H10         23.1600    55.7532    54.8461 H            1 OKA201   0.0000
    68 H11         22.3029    54.5739    55.5818 H            1 OKA201   0.0000
    69 H12         24.2474    53.4208    56.2019 H            1 OKA201   0.0000
    70 H13         24.7877    54.4424    53.5338 H            1 OKA201   0.0000
    71 H14         25.7830    51.8498    54.6631 H            1 OKA201   0.0000
    72 H15         26.9758    53.8974    52.9584 H            1 OKA201   0.0000
    73 H16         27.8587    51.2975    54.1084 H            1 OKA201   0.0000
    74 H17         28.4727    52.3331    51.4833 H            1 OKA201   0.0000
    75 H18         28.3931    50.7659    51.9352 H            1 OKA201   0.0000
    76 H19         30.6984    52.2862    51.8222 H            1 OKA201   0.0000
    77 H20         30.6025    50.7512    52.3710 H            1 OKA201   0.0000
    78 H21         31.5460    53.8042    53.5780 H            1 OKA201   0.0000
    79 H22         32.3712    52.4420    53.9389 H            1 OKA201   0.0000
    80 H23         30.8170    53.9890    55.8651 H            1 OKA201   0.0000
    81 H24         32.4478    53.9079    55.8442 H            1 OKA201   0.0000
    82 H25         32.3553    51.5690    56.2862 H            1 OKA201   0.0000
    83 H26         29.4607    51.8909    56.3106 H            1 OKA201   0.0000
    84 H27         31.0431    49.4541    56.6724 H            1 OKA201   0.0000
    85 H28         31.3406    51.6717    59.6456 H            1 OKA201   0.0000
    86 H29         33.0021    50.1407    57.8445 H            1 OKA201   0.0000
    87 H30         32.2042    48.8967    59.6820 H            1 OKA201   0.0000
    88 H31         32.6123    50.0971    60.7111 H            1 OKA201   0.0000
    89 H32         34.9205    49.6052    60.4102 H            1 OKA201   0.0000
    90 H33         33.2523    47.2758    60.9523 H            1 OKA201   0.0000
    91 H34         32.7205    48.8061    62.5522 H            1 OKA201   0.0000
    92 H35         32.7552    46.7986    63.5537 H            1 OKA201   0.0000
    93 H36         33.6103    47.7452    64.5732 H            1 OKA201   0.0000
    94 H37         34.5439    45.5071    64.0935 H            1 OKA201   0.0000
    95 H38         35.5834    46.7631    64.0004 H            1 OKA201   0.0000
    96 H39         36.4771    44.5403    62.7714 H            1 OKA201   0.0000
    97 H40         37.1856    45.9220    62.2660 H            1 OKA201   0.0000
    98 H41         37.4638    44.1445    60.6475 H            1 OKA201   0.0000
    99 H42         36.6459    45.4075    60.0130 H            1 OKA201   0.0000
   100 H43         35.4493    43.0283    61.0781 H            1 OKA201   0.0000
   101 H44         35.5408    43.4005    59.4907 H            1 OKA201   0.0000
   102 H45         33.3790    43.8431    60.3746 H            1 OKA201   0.0000
   103 H46         34.0798    45.2006    59.7979 H            1 OKA201   0.0000
   104 H47         34.3056    49.8681    63.9610 H            1 OKA201   0.0000
   105 H48         35.5164    49.2005    63.0921 H            1 OKA201   0.0000
   106 H49         34.5249    50.2987    62.4011 H            1 OKA201   0.0000
   107 H50         35.5593    47.7581    59.0145 H            1 OKA201   0.0000
   108 H51         33.9955    47.5058    58.6175 H            1 OKA201   0.0000
   109 H52         34.7611    48.8537    58.1039 H            1 OKA201   0.0000
   110 H53         29.7085    50.3232    60.2572 H            1 OKA201   0.0000
   111 H54         28.8223    49.3962    59.0931 H            1 OKA201   0.0000
   112 H55         23.5867    52.5526    52.7383 H            1 OKA201   0.0000
   113 H56         23.2689    52.0972    54.2740 H            1 OKA201   0.0000
   114 H57         22.6035    53.4619    53.6727 H            1 OKA201   0.0000
   115 H58         21.1798    56.4502    56.7740 H            1 OKA201   0.0000
   116 H59         21.7035    56.2759    58.3109 H            1 OKA201   0.0000
   117 H60         22.1250    57.5977    57.4497 H            1 OKA201   0.0000
   118 H61         25.7853    50.8893    61.0658 H            1 OKA201   0.0000
   119 H62         24.9836    49.8047    60.1452 H            1 OKA201   0.0000
   120 H63         26.6135    49.8825    60.0825 H            1 OKA201   0.0000
   121 H64         24.5889    53.0910    58.8533 H            1 OKA201   0.0000
   122 H65         25.8216    57.2705    55.8570 H            1 OKA201   0.0000
   123 H66         28.3040    49.8604    56.8814 H            1 OKA201   0.0000
   124 H67         33.8363    52.2627    58.1759 H            1 OKA201   0.0000
@<TRIPOS>BOND
     1    1    2       1
     2    1   45      ar
     3    1   46      ar
     4    2    3       1
     5    2   44       1
     6    2   47       1
     7    3    4       1
     8    4    5       1
     9    4   48       1
    10    5    6       1
    11    6    7       1
    12    7    8       1
    13    7   49       1
    14    8    9       1
    15    8   48       1
    16    8   50       1
    17    9   10       2
    18   10   11       1
    19   10   43       1
    20   11   12       1
    21   12   13       1
    22   12   50       1
    23   13   14       1
    24   13   42       1
    25   14   15       2
    26   15   16       1
    27   16   17       1
    28   16   51       1
    29   17   18       1
    30   18   19       1
    31   19   20       1
    32   19   51       1
    33   19   52       1
    34   20   21       1
    35   21   22       1
    36   22   23       1
    37   22   53       1
    38   23   24       1
    39   23   52       1
    40   24   25       1
    41   24   54       1
    42   25   26       1
    43   25   41       2
    44   26   27       1
    45   26   53       1
    46   27   28       1
    47   27   55       1
    48   28   29       1
    49   29   30       1
    50   29   40       1
    51   30   31       1
    52   30   56       1
    53   31   32       1
    54   31   39       1
    55   32   33       1
    56   33   34       1
    57   34   35       1
    58   34   56       1
    59   34   57       1
    60   35   36       1
    61   36   37       1
    62   37   38       1
    63   38   57       1
    64    3   58       1
    65    3   59       1
    66    4   60       1
    67    5   61       1
    68    5   62       1
    69    6   63       1
    70    6   64       1
    71    7   65       1
    72    9   66       1
    73   11   67       1
    74   11   68       1
    75   12   69       1
    76   13   70       1
    77   14   71       1
    78   15   72       1
    79   16   73       1
    80   17   74       1
    81   17   75       1
    82   18   76       1
    83   18   77       1
    84   20   78       1
    85   20   79       1
    86   21   80       1
    87   21   81       1
    88   22   82       1
    89   23   83       1
    90   24   84       1
    91   26   85       1
    92   27   86       1
    93   28   87       1
    94   28   88       1
    95   29   89       1
    96   30   90       1
    97   31   91       1
    98   32   92       1
    99   32   93       1
   100   33   94       1
   101   33   95       1
   102   35   96       1
   103   35   97       1
   104   36   98       1
   105   36   99       1
   106   37  100       1
   107   37  101       1
   108   38  102       1
   109   38  103       1
   110   39  104       1
   111   39  105       1
   112   39  106       1
   113   40  107       1
   114   40  108       1
   115   40  109       1
   116   41  110       1
   117   41  111       1
   118   42  112       1
   119   42  113       1
   120   42  114       1
   121   43  115       1
   122   43  116       1
   123   43  117       1
   124   44  118       1
   125   44  119       1
   126   44  120       1
   127   55  124       1
   128   47  121       1
   129   49  122       1
   130   54  123       1
@<TRIPOS>SUBSTRUCTURE
     1 OKA201      1 GROUP             4 A     OKA     0 **** OKA A 201
