@<TRIPOS>MOLECULE
1qlh_NAD_1_ligand
   70    74     1     0     0
SMALL
NO_CHARGES


@<TRIPOS>ATOM
     1 PA          13.6590     7.6870    26.9770 P.3          1 NAD377   0.0000
     2 O1A         13.3100     6.2570    26.7710 O.co2        1 NAD377   0.0000
     3 O2A         14.7550     8.2870    26.1720 O.co2        1 NAD377  -1.0000
     4 O5B         13.9930     7.9200    28.5610 O.3          1 NAD377   0.0000
     5 C5B         14.0780     6.7870    29.4740 C.3          1 NAD377   0.0000
     6 C4B         15.4240     6.8230    30.2040 C.3          1 NAD377   0.0000
     7 O4B         15.2900     6.3220    31.5800 O.3          1 NAD377   0.0000
     8 C3B         16.4320     5.9580    29.5110 C.3          1 NAD377   0.0000
     9 O3B         17.6020     6.7040    29.1470 O.3          1 NAD377   0.0000
    10 C2B         16.7980     4.8750    30.4890 C.3          1 NAD377   0.0000
    11 O2B         18.1950     4.5620    30.4110 O.3          1 NAD377   0.0000
    12 C1B         16.4050     5.4180    31.8150 C.3          1 NAD377   0.0000
    13 N9A         16.0380     4.3540    32.7590 N.pl3        1 NAD377   0.0000
    14 C8A         15.4600     3.1380    32.4560 C.2          1 NAD377   0.0000
    15 N7A         15.2920     2.4590    33.6210 N.2          1 NAD377   0.0000
    16 C5A         15.7570     3.2600    34.5390 C.ar         1 NAD377   0.0000
    17 C6A         15.7450     2.8930    35.8450 C.ar         1 NAD377   0.0000
    18 N6A         15.2700     1.7210    36.2310 N.pl3        1 NAD377   0.0000
    19 N1A         16.2430     3.7770    36.7350 N.ar         1 NAD377   0.0000
    20 C2A         16.7260     4.9780    36.2900 C.ar         1 NAD377   0.0000
    21 N3A         16.7110     5.2870    34.9550 N.ar         1 NAD377   0.0000
    22 C4A         16.2080     4.3900    34.0800 C.ar         1 NAD377   0.0000
    23 O3          12.3090     8.5830    26.7690 O.3          1 NAD377   0.0000
    24 PN          11.9360    10.1680    26.5720 P.3          1 NAD377   0.0000
    25 O1N         11.7360    10.4370    25.1260 O.2          1 NAD377   0.0000
    26 O5D         10.5030    10.2590    27.3120 O.3          1 NAD377   0.0000
    27 C5D          9.3740     9.5550    26.7680 C.3          1 NAD377   0.0000
    28 C4D          8.5710     8.9110    27.8930 C.3          1 NAD377   0.0000
    29 O4D          7.8210     9.9480    28.6060 O.3          1 NAD377   0.0000
    30 C3D          7.5930     7.9300    27.3330 C.3          1 NAD377   0.0000
    31 O3D          7.5730     6.7100    28.1020 O.3          1 NAD377   0.0000
    32 C2D          6.2440     8.6000    27.3780 C.3          1 NAD377   0.0000
    33 O2D          5.2320     7.6640    27.8160 O.3          1 NAD377   0.0000
    34 C1D          6.3850     9.7680    28.3320 C.3          1 NAD377   0.0000
    35 N1N          5.8190    11.0230    27.7590 N.ar         1 NAD377   1.0000
    36 C2N          4.8080    11.7230    28.4550 C.ar         1 NAD377   0.0000
    37 C3N          4.2820    12.9030    27.9200 C.ar         1 NAD377   0.0000
    38 C7N          3.1800    13.6780    28.6760 C.2          1 NAD377   0.0000
    39 O7N          2.3330    14.3310    28.0650 O.2          1 NAD377   0.0000
    40 N7N          3.2270    13.5820    30.0080 N.am         1 NAD377   0.0000
    41 C4N          4.7610    13.3870    26.6930 C.ar         1 NAD377   0.0000
    42 C5N          5.7640    12.6960    26.0020 C.ar         1 NAD377   0.0000
    43 C6N          6.2920    11.5180    26.5260 C.ar         1 NAD377   0.0000
    44 H5B1        14.0017     5.9348    28.9564 H            1 NAD377   0.0000
    45 H5B2        13.3349     6.8395    30.1412 H            1 NAD377   0.0000
    46 H4B         15.7599     7.7646    30.2281 H            1 NAD377   0.0000
    47 H3B         16.0232     5.5512    28.6941 H            1 NAD377   0.0000
    48 H5          17.7414     7.4462    29.8025 H            1 NAD377   0.0000
    49 H2B         16.2615     4.0542    30.2930 H            1 NAD377   0.0000
    50 H7          18.7027     5.1424    31.0477 H            1 NAD377   0.0000
    51 H1B         17.1709     5.9380    32.1932 H            1 NAD377   0.0000
    52 H8A         15.2098     2.8147    31.5434 H            1 NAD377   0.0000
    53 H6A1        15.2728     1.4750    37.2003 H            1 NAD377   0.0000
    54 H6A2        14.9080     1.0806    35.5537 H            1 NAD377   0.0000
    55 H2A         17.0937     5.6370    36.9461 H            1 NAD377   0.0000
    56 HN          12.6170    10.7744    26.9826 H            1 NAD377   0.0000
    57 H5D1         9.6965     8.8446    26.1424 H            1 NAD377   0.0000
    58 H5D2         8.7911    10.1976    26.2706 H            1 NAD377   0.0000
    59 H4D          9.1900     8.4464    28.5263 H            1 NAD377   0.0000
    60 H3D          7.8324     7.7235    26.3843 H            1 NAD377   0.0000
    61 H18          6.6546     6.5624    28.4691 H            1 NAD377   0.0000
    62 H2D          6.0108     8.9404    26.4671 H            1 NAD377   0.0000
    63 H20          4.5369     7.5671    27.1036 H            1 NAD377   0.0000
    64 H1D          5.9115     9.5538    29.1864 H            1 NAD377   0.0000
    65 H2N          4.4691    11.3750    29.3291 H            1 NAD377   0.0000
    66 H7N1         2.5472    14.0558    30.5677 H            1 NAD377   0.0000
    67 H7N2         3.9420    13.0364    30.4451 H            1 NAD377   0.0000
    68 H4N          4.3839    14.2302    26.3099 H            1 NAD377   0.0000
    69 H5N          6.1023    13.0492    25.1298 H            1 NAD377   0.0000
    70 H6N          7.0053    11.0242    26.0286 H            1 NAD377   0.0000
@<TRIPOS>BOND
     1    1    2      ar
     2    1    3      ar
     3    1    4       1
     4    1   23       1
     5    4    5       1
     6    5    6       1
     7    6    7       1
     8    6    8       1
     9    7   12       1
    10    8    9       1
    11    8   10       1
    12   10   11       1
    13   10   12       1
    14   12   13       1
    15   13   14       1
    16   13   22       1
    17   14   15       2
    18   15   16       1
    19   16   17      ar
    20   16   22      ar
    21   17   18       1
    22   17   19      ar
    23   19   20      ar
    24   20   21      ar
    25   21   22      ar
    26   23   24       1
    27   24   25       2
    28   24   26       1
    29   26   27       1
    30   27   28       1
    31   28   29       1
    32   28   30       1
    33   29   34       1
    34   30   31       1
    35   30   32       1
    36   32   33       1
    37   32   34       1
    38   34   35       1
    39   35   36      ar
    40   35   43      ar
    41   36   37      ar
    42   37   38       1
    43   37   41      ar
    44   38   39       2
    45   38   40      am
    46   41   42      ar
    47   42   43      ar
    48   43   70       1
    49    5   44       1
    50    5   45       1
    51    6   46       1
    52    8   47       1
    53    9   48       1
    54   10   49       1
    55   11   50       1
    56   12   51       1
    57   14   52       1
    58   18   53       1
    59   18   54       1
    60   20   55       1
    61   24   56       1
    62   27   57       1
    63   27   58       1
    64   28   59       1
    65   30   60       1
    66   31   61       1
    67   32   62       1
    68   33   63       1
    69   34   64       1
    70   36   65       1
    71   40   66       1
    72   40   67       1
    73   41   68       1
    74   42   69       1
@<TRIPOS>SUBSTRUCTURE
     1 NAD377      1 GROUP             4 A     NAD     0 **** NAD A 377
