@<TRIPOS>MOLECULE
1sqi_869_2_ligand
   56    58     1     0     0
SMALL
NO_CHARGES


@<TRIPOS>ATOM
     1 O30          6.6200    14.0720    23.6940 O.3          1 8691502   0.0000
     2 C31          8.3980    13.8800    23.7840 C.3          1 8691502   0.0000
     3 C24          7.7960    16.1030    24.2310 C.ar         1 8691502   0.0000
     4 C25          7.8270    17.3270    24.8830 C.ar         1 8691502   0.0000
     5 C26          6.7450    17.7680    25.7110 C.ar         1 8691502   0.0000
     6 C27          5.6130    16.9910    25.8630 C.ar         1 8691502   0.0000
     7 C28          5.5620    15.7490    25.1910 C.ar         1 8691502   0.0000
     8 C29          6.6430    15.3110    24.3800 C.ar         1 8691502   0.0000
     9 C1           7.6830    19.2120    27.4320 C.ar         1 8691502   0.0000
    10 C2           7.7300    20.4810    28.1030 C.ar         1 8691502   0.0000
    11 C3           6.8000    21.4270    27.6350 C.ar         1 8691502   0.0000
    12 C4           5.8870    21.1710    26.5560 C.ar         1 8691502   0.0000
    13 C5           5.8610    19.9260    25.8860 C.ar         1 8691502   0.0000
    14 C6           6.7850    18.9190    26.3660 C.ar         1 8691502   0.0000
    15 C7           8.6370    18.2460    27.8950 C.3          1 8691502   0.0000
    16 C9           8.1740    20.5230    30.2700 C.2          1 8691502   0.0000
    17 C15          9.1810    20.6200    31.1260 C.2          1 8691502   0.0000
    18 C18          6.9430    20.1830    30.7610 C.2          1 8691502   0.0000
    19 N16          8.5910    20.3690    32.3430 N.pl3        1 8691502   0.0000
    20 N17          7.1970    20.0760    32.0840 N.2          1 8691502   0.0000
    21 O19         10.5220    20.9940    31.0380 O.3          1 8691502  -1.0000
    22 C8           8.9370    20.8900    28.9640 C.2          1 8691502   0.0000
    23 O10         10.1710    21.1540    28.9560 O.2          1 8691502   0.0000
    24 S11          4.8930    19.7450    24.8010 S.o2         1 8691502   0.0000
    25 O13          4.0070    20.7650    24.5160 O.2          1 8691502   0.0000
    26 O12          4.1210    18.6110    24.8590 O.2          1 8691502   0.0000
    27 C14          6.0020    19.5300    23.5200 C.3          1 8691502   0.0000
    28 C20          9.2060    20.2950    33.5640 C.3          1 8691502   0.0000
    29 C21          9.5080    18.7850    33.6920 C.3          1 8691502   0.0000
    30 C22         10.5440    20.9770    33.7050 C.3          1 8691502   0.0000
    31 C23          8.3670    20.7220    34.7870 C.3          1 8691502   0.0000
    32 H1           8.6637    13.0238    23.3410 H            1 8691502   0.0000
    33 H2           8.8401    14.6471    23.3190 H            1 8691502   0.0000
    34 H3           8.6832    13.8619    24.7423 H            1 8691502   0.0000
    35 H4           8.5670    15.7942    23.6741 H            1 8691502   0.0000
    36 H5           8.6265    17.9173    24.7718 H            1 8691502   0.0000
    37 H6           4.8510    17.2989    26.4327 H            1 8691502   0.0000
    38 H7           4.7527    15.1696    25.2878 H            1 8691502   0.0000
    39 H8           6.7731    22.3240    28.0762 H            1 8691502   0.0000
    40 H9           5.2541    21.8911    26.2716 H            1 8691502   0.0000
    41 H10          8.5324    17.3984    27.3748 H            1 8691502   0.0000
    42 H11          9.5622    18.6035    27.7673 H            1 8691502   0.0000
    43 H12          8.4815    18.0627    28.8657 H            1 8691502   0.0000
    44 H13          6.0821    20.0490    30.2702 H            1 8691502   0.0000
    45 H14          5.5014    19.3874    22.6661 H            1 8691502   0.0000
    46 H15          6.5774    20.3437    23.4372 H            1 8691502   0.0000
    47 H16          6.5765    18.7331    23.7067 H            1 8691502   0.0000
    48 H17          9.9663    18.6094    34.5633 H            1 8691502   0.0000
    49 H18          8.6518    18.2696    33.6559 H            1 8691502   0.0000
    50 H19         10.1014    18.4988    32.9397 H            1 8691502   0.0000
    51 H20         10.8858    20.8512    34.6363 H            1 8691502   0.0000
    52 H21         11.1915    20.5782    33.0556 H            1 8691502   0.0000
    53 H22         10.4418    21.9538    33.5166 H            1 8691502   0.0000
    54 H23          8.9159    20.6267    35.6175 H            1 8691502   0.0000
    55 H24          8.0851    21.6756    34.6813 H            1 8691502   0.0000
    56 H25          7.5564    20.1404    34.8546 H            1 8691502   0.0000
@<TRIPOS>BOND
     1    1    2       1
     2    1    8       1
     3    3    4      ar
     4    3    8      ar
     5    4    5      ar
     6    5    6      ar
     7    5   14       1
     8    6    7      ar
     9    7    8      ar
    10    9   10      ar
    11    9   14      ar
    12    9   15       1
    13   10   11      ar
    14   10   22       1
    15   11   12      ar
    16   12   13      ar
    17   13   14      ar
    18   13   24       1
    19   16   17       2
    20   16   18       1
    21   16   22       1
    22   17   19       1
    23   17   21       1
    24   18   20       2
    25   19   20       1
    26   19   28       1
    27   22   23       2
    28   24   25       2
    29   24   26       2
    30   24   27       1
    31   28   29       1
    32   28   30       1
    33   28   31       1
    34    2   32       1
    35    2   33       1
    36    2   34       1
    37    3   35       1
    38    4   36       1
    39    6   37       1
    40    7   38       1
    41   11   39       1
    42   12   40       1
    43   15   41       1
    44   15   42       1
    45   15   43       1
    46   18   44       1
    47   31   56       1
    48   27   45       1
    49   27   46       1
    50   27   47       1
    51   29   48       1
    52   29   49       1
    53   29   50       1
    54   30   51       1
    55   30   52       1
    56   30   53       1
    57   31   54       1
    58   31   55       1
@<TRIPOS>SUBSTRUCTURE
     1 8691502     1 GROUP             4 B     869     0 **** 869 B1502
