@<TRIPOS>MOLECULE
3ew2_BTN_3_ligand
   31    32     1     0     0
SMALL
NO_CHARGES


@<TRIPOS>ATOM
     1 C11          2.5860    56.9070    32.0300 C.2          1 BTN600   0.0000
     2 O11          2.7950    57.4890    30.9430 O.co2        1 BTN600   0.0000
     3 O12          1.9570    55.8270    32.0280 O.co2        1 BTN600  -1.0000
     4 C10          3.0870    57.4990    33.3250 C.3          1 BTN600   0.0000
     5 C9           4.5840    57.7640    33.2180 C.3          1 BTN600   0.0000
     6 C8           5.3860    56.5720    33.7260 C.3          1 BTN600   0.0000
     7 C7           6.8830    56.8440    33.6400 C.3          1 BTN600   0.0000
     8 C2           7.6580    55.5590    33.3760 C.3          1 BTN600   0.0000
     9 S1           7.4530    54.5110    34.6600 S.3          1 BTN600   0.0000
    10 C6           9.0580    53.7320    34.3530 C.3          1 BTN600   0.0000
    11 C5           9.9920    54.7110    33.6640 C.3          1 BTN600   0.0000
    12 N1          10.8220    55.3710    34.6550 N.am         1 BTN600   0.0000
    13 C3          10.5320    56.6610    34.7600 C.2          1 BTN600   0.0000
    14 O3          11.1630    57.5570    35.6470 O.2          1 BTN600   0.0000
    15 N2           9.5660    56.9900    33.9130 N.am         1 BTN600   0.0000
    16 C4           9.1350    55.8510    33.1240 C.3          1 BTN600   0.0000
    17 H1           2.9147    56.8580    34.0730 H            1 BTN600   0.0000
    18 H2           2.6086    58.3584    33.5056 H            1 BTN600   0.0000
    19 H3           4.8136    58.5696    33.7642 H            1 BTN600   0.0000
    20 H4           4.8189    57.9324    32.2607 H            1 BTN600   0.0000
    21 H5           5.1670    55.7699    33.1704 H            1 BTN600   0.0000
    22 H6           5.1401    56.3947    34.6789 H            1 BTN600   0.0000
    23 H7           7.1932    57.2412    34.5037 H            1 BTN600   0.0000
    24 H8           7.0558    57.4888    32.8954 H            1 BTN600   0.0000
    25 H9           7.2798    55.1280    32.5567 H            1 BTN600   0.0000
    26 H10          8.9300    52.9305    33.7688 H            1 BTN600   0.0000
    27 H11          9.4599    53.4490    35.2238 H            1 BTN600   0.0000
    28 H12         10.5350    54.2742    32.9469 H            1 BTN600   0.0000
    29 H13         11.5270    54.9092    35.1933 H            1 BTN600   0.0000
    30 H14          9.1820    57.9095    33.8285 H            1 BTN600   0.0000
    31 H15          9.3100    56.0017    32.1510 H            1 BTN600   0.0000
@<TRIPOS>BOND
     1    1    2      ar
     2    1    3      ar
     3    1    4       1
     4    4    5       1
     5    5    6       1
     6    6    7       1
     7    7    8       1
     8    8    9       1
     9    8   16       1
    10    9   10       1
    11   10   11       1
    12   11   12       1
    13   11   16       1
    14   12   13      am
    15   13   14       2
    16   13   15      am
    17   15   16       1
    18   16   31       1
    19    4   17       1
    20    4   18       1
    21    5   19       1
    22    5   20       1
    23    6   21       1
    24    6   22       1
    25    7   23       1
    26    7   24       1
    27    8   25       1
    28   10   26       1
    29   10   27       1
    30   11   28       1
    31   12   29       1
    32   15   30       1
@<TRIPOS>SUBSTRUCTURE
     1 BTN600      1 GROUP             4 C     BTN     0 **** BTN C 600
