@<TRIPOS>MOLECULE
1jay_F42_2_ligand
   85    87     1     0     0
SMALL
NO_CHARGES


@<TRIPOS>ATOM
     1 N1           1.4210    27.0710    -0.4810 N.2          1 F42214   0.0000
     2 C2           1.8670    25.9900    -1.1380 C.2          1 F42214   0.0000
     3 O2           1.0720    25.0930    -1.4060 O.2          1 F42214   0.0000
     4 N3           3.1910    25.8330    -1.5290 N.pl3        1 F42214   0.0000
     5 C4           4.0960    26.8490    -1.3370 C.2          1 F42214   0.0000
     6 O4           5.2350    26.7190    -1.7750 O.2          1 F42214   0.0000
     7 C4A          3.6440    28.0160    -0.6130 C.2          1 F42214   0.0000
     8 C5           4.5320    29.0700    -0.2880 C.2          1 F42214   0.0000
     9 C5A          4.0540    30.2180     0.4460 C.ar         1 F42214   0.0000
    10 C6           4.9280    31.2610     0.7900 C.ar         1 F42214   0.0000
    11 C7           4.5420    32.1910     1.8300 C.ar         1 F42214   0.0000
    12 C8           3.2030    32.1640     2.3620 C.ar         1 F42214   0.0000
    13 O8M          2.7440    33.0380     3.3060 O.3          1 F42214   0.0000
    14 C9           2.2340    31.2440     1.8640 C.ar         1 F42214   0.0000
    15 C9A          2.6650    30.2580     0.9000 C.ar         1 F42214   0.0000
    16 N10          1.8040    29.2310     0.4790 N.pl3        1 F42214   0.0000
    17 C10          2.2510    28.1000    -0.2020 C.2          1 F42214   0.0000
    18 C1'          0.3570    29.3550     0.8050 C.3          1 F42214   0.0000
    19 C2'         -0.5450    30.0570    -0.2300 C.3          1 F42214   0.0000
    20 O2'          0.0220    31.3420    -0.5470 O.3          1 F42214   0.0000
    21 C3'         -2.0140    30.1840     0.2820 C.3          1 F42214   0.0000
    22 O3'         -2.0680    31.1240     1.3600 O.3          1 F42214   0.0000
    23 C4'         -2.6740    28.8390     0.7050 C.3          1 F42214   0.0000
    24 O4'         -2.6860    27.9650    -0.4000 O.3          1 F42214   0.0000
    25 C5'         -3.9930    28.7720     1.5190 C.3          1 F42214   0.0000
    26 O5'         -5.1250    29.4860     0.9940 O.3          1 F42214   0.0000
    27 P           -6.6060    29.2430     1.5330 P.3          1 F42214   0.0000
    28 O1P         -6.6040    28.1190     2.4770 O.co2        1 F42214   0.0000
    29 O2P         -7.1930    30.5130     1.9600 O.co2        1 F42214  -1.0000
    30 O3P         -7.3280    28.7680     0.2280 O.3          1 F42214   0.0000
    31 C1I         -8.6960    28.3580     0.0630 C.3          1 F42214   0.0000
    32 C2I         -9.4770    28.4820     1.3780 C.3          1 F42214   0.0000
    33 C3I         -9.3590    29.2060    -1.0130 C.2          1 F42214   0.0000
    34 O3I         -9.2370    30.4320    -1.0050 O.2          1 F42214   0.0000
    35 N1H         -9.8520    28.5410    -2.0510 N.am         1 F42214   0.0000
    36 C1H        -10.7300    29.1840    -3.0180 C.3          1 F42214   0.0000
    37 C2H        -11.8010    30.0050    -2.3070 C.2          1 F42214   0.0000
    38 O2U        -11.7820    31.2470    -2.4450 O.co2        1 F42214   0.0000
    39 O2T        -12.6470    29.3950    -1.6190 O.co2        1 F42214  -1.0000
    40 C3H        -11.3940    28.1310    -3.9060 C.3          1 F42214   0.0000
    41 C4H        -10.4200    27.2760    -4.7000 C.3          1 F42214   0.0000
    42 C5H        -11.1260    26.2480    -5.5620 C.2          1 F42214   0.0000
    43 O5H        -10.5180    25.6390    -6.4430 O.2          1 F42214   0.0000
    44 N1G        -12.4370    26.1370    -5.3740 N.am         1 F42214   0.0000
    45 C1G        -13.3190    25.5210    -6.3580 C.3          1 F42214   0.0000
    46 C2G        -12.9940    25.9740    -7.7760 C.2          1 F42214   0.0000
    47 O2V        -12.3810    27.0550    -7.9060 O.co2        1 F42214   0.0000
    48 O2W        -13.0320    25.1010    -8.6690 O.co2        1 F42214  -1.0000
    49 C3G        -14.7760    25.8580    -6.0320 C.3          1 F42214   0.0000
    50 C4G        -15.2030    25.4420    -4.6320 C.3          1 F42214   0.0000
    51 C5G        -16.6270    25.8440    -4.3110 C.2          1 F42214   0.0000
    52 O6G        -17.5520    25.3680    -5.0040 O.co2        1 F42214   0.0000
    53 O7G        -16.8220    26.6350    -3.3650 O.co2        1 F42214  -1.0000
    54 H1           3.4867    24.9765    -1.9521 H            1 F42214   0.0000
    55 H2           5.4909    29.0193    -0.5670 H            1 F42214   0.0000
    56 H3           5.8064    31.3604     0.3225 H            1 F42214   0.0000
    57 H4           5.2052    32.8528     2.1796 H            1 F42214   0.0000
    58 H8M          3.3493    33.7475     3.6668 H            1 F42214   0.0000
    59 H6           1.2837    31.2803     2.1731 H            1 F42214   0.0000
    60 H1'1         0.2851    29.8661     1.6615 H            1 F42214   0.0000
    61 H1'2        -0.0011    28.4307     0.9373 H            1 F42214   0.0000
    62 H2'         -0.5517    29.5047    -1.0636 H            1 F42214   0.0000
    63 H10          0.9387    31.2174    -0.9267 H            1 F42214   0.0000
    64 H3'         -2.5588    30.5597    -0.4677 H            1 F42214   0.0000
    65 H12         -1.7495    32.0164     1.0404 H            1 F42214   0.0000
    66 H4'         -1.9990    28.4302     1.3193 H            1 F42214   0.0000
    67 H14         -2.2687    28.4180    -1.1878 H            1 F42214   0.0000
    68 H5'1        -3.8031    29.1371     2.4304 H            1 F42214   0.0000
    69 H5'2        -4.2524    27.8091     1.5931 H            1 F42214   0.0000
    70 H1I         -8.7105    27.4017    -0.2290 H            1 F42214   0.0000
    71 H2I1       -10.4226    28.1907     1.2328 H            1 F42214   0.0000
    72 H2I2        -9.0527    27.9023     2.0736 H            1 F42214   0.0000
    73 H2I3        -9.4647    29.4338     1.6845 H            1 F42214   0.0000
    74 H1H         -9.6150    27.5770    -2.1713 H            1 F42214   0.0000
    75 H22        -10.1848    29.7939    -3.5932 H            1 F42214   0.0000
    76 H3H1       -11.9962    28.6007    -4.5515 H            1 F42214   0.0000
    77 H3H2       -11.9370    27.5270    -3.3226 H            1 F42214   0.0000
    78 H4H1        -9.8159    26.7995    -4.0612 H            1 F42214   0.0000
    79 H4H2        -9.8766    27.8723    -5.2909 H            1 F42214   0.0000
    80 H1G        -12.8332    26.4891    -4.5260 H            1 F42214   0.0000
    81 H28        -13.2047    24.5288    -6.3085 H            1 F42214   0.0000
    82 H3G1       -15.3633    25.3908    -6.6928 H            1 F42214   0.0000
    83 H3G2       -14.8980    26.8468    -6.1183 H            1 F42214   0.0000
    84 H4G1       -14.5915    25.8745    -3.9694 H            1 F42214   0.0000
    85 H4G2       -15.1266    24.4478    -4.5566 H            1 F42214   0.0000
@<TRIPOS>BOND
     1    1    2       1
     2    1   17       2
     3    2    3       2
     4    2    4       1
     5    4    5       1
     6    5    6       2
     7    5    7       1
     8    7    8       2
     9    7   17       1
    10    8    9       1
    11    9   10      ar
    12    9   15      ar
    13   10   11      ar
    14   11   12      ar
    15   12   13       1
    16   12   14      ar
    17   14   15      ar
    18   15   16       1
    19   16   17       1
    20   16   18       1
    21   18   19       1
    22   19   20       1
    23   19   21       1
    24   21   22       1
    25   21   23       1
    26   23   24       1
    27   23   25       1
    28   25   26       1
    29   26   27       1
    30   27   28      ar
    31   27   29      ar
    32   27   30       1
    33   30   31       1
    34   31   32       1
    35   31   33       1
    36   33   34       2
    37   33   35      am
    38   35   36       1
    39   36   37       1
    40   36   40       1
    41   37   38      ar
    42   37   39      ar
    43   40   41       1
    44   41   42       1
    45   42   43       2
    46   42   44      am
    47   44   45       1
    48   45   46       1
    49   45   49       1
    50   46   47      ar
    51   46   48      ar
    52   49   50       1
    53   50   51       1
    54   51   52      ar
    55   51   53      ar
    56    4   54       1
    57    8   55       1
    58   10   56       1
    59   11   57       1
    60   13   58       1
    61   14   59       1
    62   18   60       1
    63   18   61       1
    64   19   62       1
    65   20   63       1
    66   21   64       1
    67   22   65       1
    68   23   66       1
    69   24   67       1
    70   25   68       1
    71   25   69       1
    72   49   83       1
    73   31   70       1
    74   32   71       1
    75   32   72       1
    76   32   73       1
    77   35   74       1
    78   36   75       1
    79   50   85       1
    80   40   76       1
    81   40   77       1
    82   41   78       1
    83   41   79       1
    84   44   80       1
    85   45   81       1
    86   50   84       1
    87   49   82       1
@<TRIPOS>SUBSTRUCTURE
     1 F42214      1 GROUP             4 B     F42     0 **** F42 B 214
