@<TRIPOS>MOLECULE
3q2k_HP7_13_ligand
   62    64     1     0     0
SMALL
NO_CHARGES


@<TRIPOS>ATOM
     1 N1          53.4990    50.3640    36.9820 N.pl3        1 HP7550   0.0000
     2 C2          52.9480    50.5480    35.7720 C.2          1 HP7550   0.0000
     3 O2          52.1200    51.4710    35.5830 O.2          1 HP7550   0.0000
     4 N3          53.2820    49.7900    34.7090 N.pl3        1 HP7550   0.0000
     5 C4          54.2130    48.8210    34.8390 C.2          1 HP7550   0.0000
     6 O4          54.5230    48.1800    33.8010 O.2          1 HP7550   0.0000
     7 C5          54.7490    48.5890    36.1030 C.2          1 HP7550   0.0000
     8 C6          54.3780    49.3780    37.1920 C.2          1 HP7550   0.0000
     9 PA          55.3630    48.5440    41.3350 P.3          1 HP7550   0.0000
    10 PB          57.0770    48.4270    43.6910 P.3          1 HP7550   0.0000
    11 O'P         57.0610    53.7980    41.5870 O.co2        1 HP7550   0.0000
    12 O'Q         56.3770    54.1420    43.5470 O.co2        1 HP7550  -1.0000
    13 C1'         58.8460    50.1720    42.9470 C.3          1 HP7550   0.0000
    14 O1A         55.7860    47.8370    40.0710 O.co2        1 HP7550   0.0000
    15 O1B         58.0290    47.2690    43.8590 O.co2        1 HP7550   0.0000
    16 C1C         53.0400    51.2500    38.0620 C.3          1 HP7550   0.0000
    17 C2'         60.2230    50.5490    43.4960 C.3          1 HP7550   0.0000
    18 N2'         60.8980    49.4770    44.2110 N.am         1 HP7550   0.0000
    19 O2A         54.2360    48.0330    42.1960 O.co2        1 HP7550  -1.0000
    20 O2B         55.8180    48.4810    44.5240 O.co2        1 HP7550  -1.0000
    21 C2C         51.8120    50.6600    38.7520 C.3          1 HP7550   0.0000
    22 O2C         50.9070    51.7660    38.7010 O.3          1 HP7550   0.0000
    23 C3'         60.0840    51.7150    44.4670 C.3          1 HP7550   0.0000
    24 O3'         61.3530    52.1560    44.9680 O.3          1 HP7550   0.0000
    25 O3A         56.7370    48.7500    42.1560 O.3          1 HP7550   0.0000
    26 O3B         58.0200    49.6960    44.0080 O.3          1 HP7550   0.0000
    27 C3C         52.2150    50.4750    40.2050 C.3          1 HP7550   0.0000
    28 O3C         51.2160    51.0910    41.0130 O.3          1 HP7550   0.0000
    29 C4'         59.2920    52.8510    43.8300 C.3          1 HP7550   0.0000
    30 O4'         59.1230    53.8260    44.8640 O.3          1 HP7550   0.0000
    31 C4C         53.3670    51.4560    40.3480 C.3          1 HP7550   0.0000
    32 O4C         54.0100    51.5110    39.0760 O.3          1 HP7550   0.0000
    33 C5'         57.9280    52.3560    43.3710 C.3          1 HP7550   0.0000
    34 O5'         58.1200    51.2950    42.4330 O.3          1 HP7550   0.0000
    35 C5C         54.3070    50.9940    41.4490 C.3          1 HP7550   0.0000
    36 O5C         55.0710    50.0190    40.7520 O.3          1 HP7550   0.0000
    37 C6'         57.1150    53.4790    42.7940 C.2          1 HP7550   0.0000
    38 C7'         61.6720    48.6310    43.5330 C.2          1 HP7550   0.0000
    39 O7'         61.9290    48.8770    42.3700 O.2          1 HP7550   0.0000
    40 C8'         62.2480    47.3580    44.0760 C.3          1 HP7550   0.0000
    41 H1          52.8408    49.9451    33.8251 H            1 HP7550   0.0000
    42 H2          55.4079    47.8478    36.2317 H            1 HP7550   0.0000
    43 H3          54.7577    49.2115    38.1020 H            1 HP7550   0.0000
    44 H1'         58.9378    49.4696    42.2411 H            1 HP7550   0.0000
    45 H1C         52.7758    52.1240    37.6541 H            1 HP7550   0.0000
    46 H2'         60.8020    50.8370    42.7333 H            1 HP7550   0.0000
    47 H7          60.7824    49.3764    45.1992 H            1 HP7550   0.0000
    48 H2C         51.4627    49.8292    38.3186 H            1 HP7550   0.0000
    49 H9          50.6480    52.0279    39.6307 H            1 HP7550   0.0000
    50 H3'         59.5545    51.3872    45.2494 H            1 HP7550   0.0000
    51 H11         61.9865    51.3828    44.9979 H            1 HP7550   0.0000
    52 H3C         52.4352    49.5334    40.4599 H            1 HP7550   0.0000
    53 H13         50.8054    50.4063    41.6151 H            1 HP7550   0.0000
    54 H4'         59.7985    53.2415    43.0613 H            1 HP7550   0.0000
    55 H15         59.5423    54.6885    44.5806 H            1 HP7550   0.0000
    56 H4C         53.0065    52.3602    40.5771 H            1 HP7550   0.0000
    57 H5'         57.4419    51.9906    44.1649 H            1 HP7550   0.0000
    58 H5C1        53.8068    50.5911    42.2155 H            1 HP7550   0.0000
    59 H5C2        54.8806    51.7425    41.7819 H            1 HP7550   0.0000
    60 H8'1        62.7908    46.9085    43.3666 H            1 HP7550   0.0000
    61 H8'2        62.8315    47.5645    44.8614 H            1 HP7550   0.0000
    62 H8'3        61.5060    46.7518    44.3623 H            1 HP7550   0.0000
@<TRIPOS>BOND
     1    1    2       1
     2    1    8       1
     3    1   16       1
     4    2    3       2
     5    2    4       1
     6    4    5       1
     7    5    6       2
     8    5    7       1
     9    7    8       2
    10    9   14      ar
    11    9   19      ar
    12    9   25       1
    13    9   36       1
    14   10   15      ar
    15   10   20      ar
    16   10   25       1
    17   10   26       1
    18   11   37      ar
    19   12   37      ar
    20   13   17       1
    21   13   26       1
    22   13   34       1
    23   16   21       1
    24   16   32       1
    25   17   18       1
    26   17   23       1
    27   18   38      am
    28   21   22       1
    29   21   27       1
    30   23   24       1
    31   23   29       1
    32   27   28       1
    33   27   31       1
    34   29   30       1
    35   29   33       1
    36   31   32       1
    37   31   35       1
    38   33   34       1
    39   33   37       1
    40   35   36       1
    41   38   39       2
    42   38   40       1
    43    4   41       1
    44    7   42       1
    45    8   43       1
    46   40   62       1
    47   13   44       1
    48   40   61       1
    49   40   60       1
    50   16   45       1
    51   17   46       1
    52   18   47       1
    53   21   48       1
    54   22   49       1
    55   23   50       1
    56   24   51       1
    57   27   52       1
    58   28   53       1
    59   29   54       1
    60   30   55       1
    61   31   56       1
    62   33   57       1
    63   35   58       1
    64   35   59       1
@<TRIPOS>SUBSTRUCTURE
     1 HP7550      1 GROUP             4 M     HP7     0 **** HP7 M 550
