@<TRIPOS>MOLECULE
4e1b_TXA_1_ligand
   52    54     1     0     0
SMALL
NO_CHARGES


@<TRIPOS>ATOM
     1 OXT          0.1580    22.1800    15.2730 O.co2        1 TXA2002   0.0000
     2 CX           1.3810    22.3800    15.0560 C.2          1 TXA2002   0.0000
     3 OX           1.7470    22.8790    13.9800 O.co2        1 TXA2002  -1.0000
     4 CAX          2.4050    21.9500    16.1060 C.3          1 TXA2002   0.0000
     5 CBX          3.3210    20.9510    15.3230 C.3          1 TXA2002   0.0000
     6 CGX          4.2330    20.1630    16.2640 C.3          1 TXA2002   0.0000
     7 OGX          2.5470    19.9470    14.6550 O.3          1 TXA2002   0.0000
     8 NX           1.7770    21.3960    17.3810 N.am         1 TXA2002   0.0000
     9 CCA          1.4400    22.2740    18.3310 C.2          1 TXA2002   0.0000
    10 OP2          0.6220    21.7550    19.1560 O.3          1 TXA2002   0.0000
    11 OCA          1.7830    23.3390    18.1740 O.2          1 TXA2002   0.0000
    12 P            0.2500    22.5860    20.2700 P.3          1 TXA2002   0.0000
    13 OP3          1.2870    22.8820    21.4330 O.co2        1 TXA2002   0.0000
    14 OP1         -0.6140    23.9240    19.8150 O.co2        1 TXA2002  -1.0000
    15 O5'         -0.8210    21.5620    21.1380 O.3          1 TXA2002   0.0000
    16 C5'         -1.9670    20.9370    20.5570 C.3          1 TXA2002   0.0000
    17 C4'         -3.1580    21.8760    20.5220 C.3          1 TXA2002   0.0000
    18 C3'         -3.8710    21.9430    21.8730 C.3          1 TXA2002   0.0000
    19 O3'         -3.3990    23.0040    22.7070 O.3          1 TXA2002   0.0000
    20 C2'         -5.2760    22.2880    21.4380 C.3          1 TXA2002   0.0000
    21 O2'         -5.3380    23.7140    21.2980 O.3          1 TXA2002   0.0000
    22 C1'         -5.4100    21.6100    20.0850 C.3          1 TXA2002   0.0000
    23 O4'         -4.1180    21.2920    19.6330 O.3          1 TXA2002   0.0000
    24 N9          -6.1480    20.3700    20.2170 N.pl3        1 TXA2002   0.0000
    25 C8          -5.6440    19.0930    20.3620 C.2          1 TXA2002   0.0000
    26 N7          -6.6290    18.1990    20.4750 N.2          1 TXA2002   0.0000
    27 C5          -7.8050    18.8640    20.3710 C.ar         1 TXA2002   0.0000
    28 C6          -9.2370    18.4790    20.4230 C.ar         1 TXA2002   0.0000
    29 N6          -9.6080    17.1560    20.5140 N.pl3        1 TXA2002   0.0000
    30 N1         -10.1310    19.4770    20.3480 N.ar         1 TXA2002   0.0000
    31 C2          -9.7870    20.7640    20.1720 C.ar         1 TXA2002   0.0000
    32 N3          -8.4850    21.1880    20.1160 N.ar         1 TXA2002   0.0000
    33 C4          -7.4780    20.2980    20.2110 C.ar         1 TXA2002   0.0000
    34 HAX          2.9540    22.7491    16.3511 H            1 TXA2002   0.0000
    35 HBX          3.8739    21.4508    14.6563 H            1 TXA2002   0.0000
    36 HGX1         4.8017    19.5371    15.7303 H            1 TXA2002   0.0000
    37 HGX2         4.8186    20.7970    16.7690 H            1 TXA2002   0.0000
    38 HGX3         3.6751    19.6396    16.9080 H            1 TXA2002   0.0000
    39 HGX          2.8092    19.0435    14.9941 H            1 TXA2002   0.0000
    40 HX           1.6235    20.4152    17.5014 H            1 TXA2002   0.0000
    41 H5'1        -2.2056    20.1303    21.0976 H            1 TXA2002   0.0000
    42 H5'2        -1.7458    20.6585    19.6224 H            1 TXA2002   0.0000
    43 H4'         -2.8884    22.7877    20.2119 H            1 TXA2002   0.0000
    44 H3'         -3.8402    21.0632    22.3473 H            1 TXA2002   0.0000
    45 H12         -3.4955    22.7415    23.6671 H            1 TXA2002   0.0000
    46 H2'         -5.9568    21.9512    22.0885 H            1 TXA2002   0.0000
    47 H14         -4.4382    24.0626    21.0355 H            1 TXA2002   0.0000
    48 H1'         -5.8657    22.2182    19.4351 H            1 TXA2002   0.0000
    49 H16         -4.6699    18.8675    20.3800 H            1 TXA2002   0.0000
    50 H17        -10.5765    16.9095    20.5483 H            1 TXA2002   0.0000
    51 H18         -8.9089    16.4417    20.5458 H            1 TXA2002   0.0000
    52 H19        -10.5145    21.4436    20.0775 H            1 TXA2002   0.0000
@<TRIPOS>BOND
     1    1    2      ar
     2    2    3      ar
     3    2    4       1
     4    4    5       1
     5    4    8       1
     6    5    6       1
     7    5    7       1
     8    8    9      am
     9    9   10       1
    10    9   11       2
    11   10   12       1
    12   12   13      ar
    13   12   14      ar
    14   12   15       1
    15   15   16       1
    16   16   17       1
    17   17   18       1
    18   17   23       1
    19   18   19       1
    20   18   20       1
    21   20   21       1
    22   20   22       1
    23   22   23       1
    24   22   24       1
    25   24   25       1
    26   24   33       1
    27   25   26       2
    28   26   27       1
    29   27   28      ar
    30   27   33      ar
    31   28   29       1
    32   28   30      ar
    33   30   31      ar
    34   31   32      ar
    35   32   33      ar
    36   31   52       1
    37    4   34       1
    38    5   35       1
    39    6   36       1
    40    6   37       1
    41    6   38       1
    42    7   39       1
    43    8   40       1
    44   29   51       1
    45   16   41       1
    46   16   42       1
    47   17   43       1
    48   18   44       1
    49   19   45       1
    50   20   46       1
    51   21   47       1
    52   22   48       1
    53   25   49       1
    54   29   50       1
@<TRIPOS>SUBSTRUCTURE
     1 TXA2002     1 GROUP             4 A     TXA     0 **** TXA A2002
