@<TRIPOS>MOLECULE
3ls8_AJZ_2_ligand
   37    40     1     0     0
SMALL
NO_CHARGES


@<TRIPOS>ATOM
     1 N1         -33.8460    66.5150   -35.5860 N.ar         1 AJZ1004   0.0000
     2 C2         -34.2320    65.3270   -35.1180 C.ar         1 AJZ1004   0.0000
     3 N3         -34.0790    64.2250   -35.8770 N.ar         1 AJZ1004   0.0000
     4 C4         -33.5430    64.2780   -37.1130 C.ar         1 AJZ1004   0.0000
     5 C5         -33.1380    65.5270   -37.5990 C.ar         1 AJZ1004   0.0000
     6 C6         -33.2980    66.6450   -36.7990 C.ar         1 AJZ1004   0.0000
     7 OAA        -34.8680    67.3920   -30.8770 O.3          1 AJZ1004   0.0000
     8 CAB        -36.1100    64.1670   -32.1400 C.ar         1 AJZ1004   0.0000
     9 CAC        -32.7630    63.5990   -39.1620 C.2          1 AJZ1004   0.0000
    10 CAD        -35.8970    65.2380   -31.2670 C.ar         1 AJZ1004   0.0000
    11 CAE        -35.5630    64.1850   -33.4250 C.ar         1 AJZ1004   0.0000
    12 CAF        -33.3190    63.2730   -37.9870 C.2          1 AJZ1004   0.0000
    13 CAG        -34.5790    66.3380   -32.9740 C.ar         1 AJZ1004   0.0000
    14 CAH        -32.5260    70.2550   -36.5300 C.3          1 AJZ1004   0.0000
    15 CAI        -31.5530    69.5320   -38.4950 C.3          1 AJZ1004   0.0000
    16 CAJ        -33.4490    69.0640   -36.4090 C.3          1 AJZ1004   0.0000
    17 CAK        -32.1570    68.1520   -38.4650 C.3          1 AJZ1004   0.0000
    18 OAN        -32.4800    70.4550   -37.9510 O.3          1 AJZ1004   0.0000
    19 SAO        -32.5180    65.2700   -39.1440 S.3          1 AJZ1004   0.0000
    20 CAP        -35.1170    66.3260   -31.6940 C.ar         1 AJZ1004   0.0000
    21 CAQ        -34.7890    65.2750   -33.8450 C.ar         1 AJZ1004   0.0000
    22 NAV        -32.9420    67.9270   -37.2170 N.pl3        1 AJZ1004   0.0000
    23 HAA        -35.2441    67.4105   -29.9506 H            1 AJZ1004   0.0000
    24 HAB        -36.6567    63.3841   -31.8429 H            1 AJZ1004   0.0000
    25 HAC        -32.5363    62.9722   -39.9075 H            1 AJZ1004   0.0000
    26 HAD        -36.2950    65.2299   -30.3496 H            1 AJZ1004   0.0000
    27 HAE        -35.7241    63.4184   -34.0466 H            1 AJZ1004   0.0000
    28 HAF        -33.5576    62.3271   -37.7670 H            1 AJZ1004   0.0000
    29 HAG        -34.0337    67.1211   -33.2731 H            1 AJZ1004   0.0000
    30 HAH1       -31.6188    70.0502   -36.1625 H            1 AJZ1004   0.0000
    31 HAH2       -32.9022    71.0550   -36.0626 H            1 AJZ1004   0.0000
    32 HAI1       -31.3430    69.7853   -39.4393 H            1 AJZ1004   0.0000
    33 HAI2       -30.7129    69.5418   -37.9526 H            1 AJZ1004   0.0000
    34 HAJ1       -34.3593    69.3190   -36.7351 H            1 AJZ1004   0.0000
    35 HAJ2       -33.5041    68.7869   -35.4497 H            1 AJZ1004   0.0000
    36 HAK1       -31.4229    67.4747   -38.5139 H            1 AJZ1004   0.0000
    37 HAK2       -32.7624    68.0449   -39.2537 H            1 AJZ1004   0.0000
@<TRIPOS>BOND
     1    1    2      ar
     2    1    6      ar
     3    2    3      ar
     4    2   21       1
     5    3    4      ar
     6    4    5      ar
     7    4   12       1
     8    5    6      ar
     9    5   19       1
    10    6   22       1
    11    7   20       1
    12    8   10      ar
    13    8   11      ar
    14    9   12       2
    15    9   19       1
    16   10   20      ar
    17   11   21      ar
    18   13   20      ar
    19   13   21      ar
    20   14   16       1
    21   14   18       1
    22   15   17       1
    23   15   18       1
    24   16   22       1
    25   17   22       1
    26    7   23       1
    27    8   24       1
    28    9   25       1
    29   10   26       1
    30   11   27       1
    31   12   28       1
    32   13   29       1
    33   14   30       1
    34   14   31       1
    35   15   32       1
    36   15   33       1
    37   16   34       1
    38   16   35       1
    39   17   36       1
    40   17   37       1
@<TRIPOS>SUBSTRUCTURE
     1 AJZ1004     1 GROUP             4 B     AJZ     0 **** AJZ B1004
