@<TRIPOS>MOLECULE
1yre_COA_1_ligand
   80    82     1     0     0
SMALL
NO_CHARGES


@<TRIPOS>ATOM
     1 N1A         61.9350    37.7640    21.1860 N.ar         1 COA601   0.0000
     2 C2A         62.6730    38.5300    20.2960 C.ar         1 COA601   0.0000
     3 N3A         63.7690    39.2230    20.7460 N.ar         1 COA601   0.0000
     4 C4A         64.0940    39.1530    22.0550 C.ar         1 COA601   0.0000
     5 C5A         63.3630    38.3910    22.9620 C.ar         1 COA601   0.0000
     6 C6A         62.2660    37.6900    22.5160 C.ar         1 COA601   0.0000
     7 N6A         61.6350    36.8560    23.3340 N.pl3        1 COA601   0.0000
     8 N7A         63.9220    38.5070    24.1910 N.2          1 COA601   0.0000
     9 C8A         64.9950    39.3310    24.0820 C.2          1 COA601   0.0000
    10 N9A         65.1040    39.7280    22.7640 N.pl3        1 COA601   0.0000
    11 C1B         66.1480    40.5650    22.1870 C.3          1 COA601   0.0000
    12 C2B         66.4040    41.6870    23.1680 C.3          1 COA601   0.0000
    13 O2B         65.7080    42.8260    22.6980 O.3          1 COA601   0.0000
    14 C3B         67.9110    41.8350    23.1770 C.3          1 COA601   0.0000
    15 O3B         68.3540    42.8710    22.3150 O.3          1 COA601   0.0000
    16 P3B         68.2910    44.4610    22.6630 P.3          1 COA601   0.0000
    17 O7A         69.3610    44.8460    23.6750 O.co2        1 COA601   0.0000
    18 O8A         66.9090    44.7380    23.2180 O.co2        1 COA601  -1.0000
    19 O9A         68.5590    45.2470    21.3830 O.co2        1 COA601  -1.0000
    20 C4B         68.4410    40.5220    22.6080 C.3          1 COA601   0.0000
    21 O4B         67.3420    39.8260    22.0630 O.3          1 COA601   0.0000
    22 C5B         69.1370    39.6500    23.6480 C.3          1 COA601   0.0000
    23 O5B         70.4360    40.1560    23.8960 O.3          1 COA601   0.0000
    24 P1A         70.9470    40.2950    25.4150 P.3          1 COA601   0.0000
    25 O1A         69.8360    40.9030    26.2390 O.co2        1 COA601   0.0000
    26 O2A         72.3000    40.9220    25.5170 O.co2        1 COA601  -1.0000
    27 O3A         71.1610    38.7490    25.8500 O.3          1 COA601   0.0000
    28 P2A         71.0990    38.1010    27.3130 P.3          1 COA601   0.0000
    29 O4A         71.7580    38.9950    28.3180 O.co2        1 COA601   0.0000
    30 O5A         69.6630    37.7250    27.6740 O.co2        1 COA601  -1.0000
    31 O6A         72.0450    36.7820    27.1220 O.3          1 COA601   0.0000
    32 CBP         71.6390    34.4330    26.7990 C.3          1 COA601   0.0000
    33 CCP         71.7620    35.8090    26.1450 C.3          1 COA601   0.0000
    34 CDP         71.1830    33.5130    25.6420 C.3          1 COA601   0.0000
    35 CEP         73.0250    34.0020    27.3200 C.3          1 COA601   0.0000
    36 CAP         70.6420    34.4780    27.9860 C.3          1 COA601   0.0000
    37 OAP         69.4200    35.1560    27.6770 O.3          1 COA601   0.0000
    38 C9P         70.3720    33.1330    28.6020 C.2          1 COA601   0.0000
    39 O9P         71.2600    32.5910    29.5270 O.2          1 COA601   0.0000
    40 N8P         69.2710    32.4760    28.2550 N.am         1 COA601   0.0000
    41 C7P         68.8480    31.2650    28.9310 C.3          1 COA601   0.0000
    42 C6P         69.6290    30.0470    28.4080 C.3          1 COA601   0.0000
    43 C5P         69.7330    30.0220    26.8900 C.2          1 COA601   0.0000
    44 O5P         68.7170    30.0280    26.1560 O.2          1 COA601   0.0000
    45 N4P         70.9850    29.9670    26.4380 N.am         1 COA601   0.0000
    46 C3P         71.4110    30.3840    25.1170 C.3          1 COA601   0.0000
    47 C2P         71.7370    29.2330    24.1950 C.3          1 COA601   0.0000
    48 S1P         73.1450    29.6470    23.1360 S.3          1 COA601   0.0000
    49 H2A         62.4084    38.5771    19.3328 H            1 COA601   0.0000
    50 H6A1        61.8893    36.8153    24.3003 H            1 COA601   0.0000
    51 H6A2        60.9054    36.2685    22.9838 H            1 COA601   0.0000
    52 H8A         65.6024    39.6038    24.8281 H            1 COA601   0.0000
    53 H1B         65.8619    40.9278    21.3002 H            1 COA601   0.0000
    54 H2B         66.0761    41.4324    24.0778 H            1 COA601   0.0000
    55 H7          66.1941    43.6533    22.9795 H            1 COA601   0.0000
    56 H3B         68.2475    41.9797    24.1075 H            1 COA601   0.0000
    57 H4B         69.0886    40.7270    21.8741 H            1 COA601   0.0000
    58 H5B1        69.2042    38.7127    23.3059 H            1 COA601   0.0000
    59 H5B2        68.6086    39.6579    24.4970 H            1 COA601   0.0000
    60 HCP1        72.5011    35.7909    25.4716 H            1 COA601   0.0000
    61 HCP2        70.9016    36.0374    25.6895 H            1 COA601   0.0000
    62 HDP1        71.0750    32.5787    25.9818 H            1 COA601   0.0000
    63 HDP2        70.3094    33.8395    25.2810 H            1 COA601   0.0000
    64 HDP3        71.8698    33.5261    24.9152 H            1 COA601   0.0000
    65 HEP1        72.9544    33.1019    27.7500 H            1 COA601   0.0000
    66 HEP2        73.6690    33.9570    26.5563 H            1 COA601   0.0000
    67 HEP3        73.3504    34.6676    27.9916 H            1 COA601   0.0000
    68 HAP         71.0861    35.0223    28.6977 H            1 COA601   0.0000
    69 H21         69.5144    36.1279    27.8925 H            1 COA601   0.0000
    70 H8P         68.7151    32.8284    27.5022 H            1 COA601   0.0000
    71 H7P1        67.8715    31.1228    28.7688 H            1 COA601   0.0000
    72 H7P2        69.0120    31.3630    29.9126 H            1 COA601   0.0000
    73 H6P1        69.1637    29.2150    28.7103 H            1 COA601   0.0000
    74 H6P2        70.5523    30.0706    28.7913 H            1 COA601   0.0000
    75 H4P         71.6844    29.6107    27.0576 H            1 COA601   0.0000
    76 H3P1        72.2277    30.9530    25.2132 H            1 COA601   0.0000
    77 H3P2        70.6767    30.9222    24.7033 H            1 COA601   0.0000
    78 H2P1        70.9416    29.0349    23.6222 H            1 COA601   0.0000
    79 H2P2        71.9627    28.4270    24.7422 H            1 COA601   0.0000
    80 H1P         72.8148    30.0742    22.2943 H            1 COA601   0.0000
@<TRIPOS>BOND
     1    1    2      ar
     2    1    6      ar
     3    2    3      ar
     4    3    4      ar
     5    4    5      ar
     6    4   10       1
     7    5    6      ar
     8    5    8       1
     9    6    7       1
    10    8    9       2
    11    9   10       1
    12   10   11       1
    13   11   12       1
    14   11   21       1
    15   12   13       1
    16   12   14       1
    17   14   15       1
    18   14   20       1
    19   15   16       1
    20   16   17      ar
    21   16   18      ar
    22   16   19      ar
    23   20   21       1
    24   20   22       1
    25   22   23       1
    26   23   24       1
    27   24   25      ar
    28   24   26      ar
    29   24   27       1
    30   27   28       1
    31   28   29      ar
    32   28   30      ar
    33   28   31       1
    34   31   33       1
    35   32   33       1
    36   32   34       1
    37   32   35       1
    38   32   36       1
    39   36   37       1
    40   36   38       1
    41   38   39       2
    42   38   40      am
    43   40   41       1
    44   41   42       1
    45   42   43       1
    46   43   44       2
    47   43   45      am
    48   45   46       1
    49   46   47       1
    50   47   48       1
    51    2   49       1
    52    7   50       1
    53    7   51       1
    54    9   52       1
    55   11   53       1
    56   12   54       1
    57   13   55       1
    58   14   56       1
    59   48   80       1
    60   47   79       1
    61   20   57       1
    62   22   58       1
    63   22   59       1
    64   47   78       1
    65   46   77       1
    66   33   60       1
    67   33   61       1
    68   34   62       1
    69   34   63       1
    70   34   64       1
    71   35   65       1
    72   35   66       1
    73   35   67       1
    74   36   68       1
    75   37   69       1
    76   40   70       1
    77   41   71       1
    78   41   72       1
    79   42   73       1
    80   42   74       1
    81   45   75       1
    82   46   76       1
@<TRIPOS>SUBSTRUCTURE
     1 COA601      1 GROUP             4 A     COA     0 **** COA A 601
