@<TRIPOS>MOLECULE
4n4w_SNT_1_ligand
   56    59     1     0     0
SMALL
USER_CHARGES


@<TRIPOS>ATOM
     1 C4         -11.7120   -22.1060   -14.5870 C.ar         1 SNT605   0.0000
     2 C3         -12.1420   -21.6330   -15.8400 C.ar         1 SNT605   0.0000
     3 C2         -11.3250   -21.7940   -16.9610 C.ar         1 SNT605   0.0000
     4 C1         -10.0800   -22.4160   -16.8250 C.ar         1 SNT605   0.0000
     5 N1         -12.5190   -21.9900   -13.5220 N.pl3        1 SNT605   0.0000
     6 N2         -14.6820   -21.2500    -9.6740 N.2          1 SNT605   0.0000
     7 N3         -15.0460   -20.6620    -8.5230 N.pl3        1 SNT605   0.0000
     8 N4         -15.4700   -20.4710    -5.7280 N.4          1 SNT605   1.0000
     9 N5         -13.5470   -22.7160   -13.3740 N.2          1 SNT605   0.0000
    10 C5         -12.4010   -21.1990   -12.4390 C.2          1 SNT605   0.0000
    11 C6         -13.4210   -21.4580   -11.6060 C.2          1 SNT605   0.0000
    12 C7         -13.6400   -20.8360   -10.4230 C.2          1 SNT605   0.0000
    13 C8         -13.9860   -20.1290    -7.6250 C.3          1 SNT605   0.0000
    14 C9         -14.6330   -19.4640    -6.4280 C.3          1 SNT605   0.0000
    15 C10        -15.9720   -20.0710    -4.3950 C.3          1 SNT605   0.0000
    16 C11        -14.9500   -19.9400    -3.4610 C.ar         1 SNT605   0.0000
    17 C12        -14.3080   -21.0820    -2.9780 C.ar         1 SNT605   0.0000
    18 C13        -13.2800   -20.9220    -2.0430 C.ar         1 SNT605   0.0000
    19 C14        -12.9070   -19.6510    -1.5820 C.ar         1 SNT605   0.0000
    20 C15         -9.6540   -22.9000   -15.5800 C.ar         1 SNT605   0.0000
    21 C16        -10.4770   -22.7710   -14.4610 C.ar         1 SNT605   0.0000
    22 C17        -14.1340   -22.4160   -12.2250 C.2          1 SNT605   0.0000
    23 C18        -15.3910   -23.1510   -11.7840 C.3          1 SNT605   0.0000
    24 C19        -16.5670   -20.9520    -6.5860 C.3          1 SNT605   0.0000
    25 C20        -15.9650   -21.5910    -7.8200 C.3          1 SNT605   0.0000
    26 C21        -13.5560   -18.5140    -2.0700 C.ar         1 SNT605   0.0000
    27 C22        -14.5730   -18.6620    -3.0120 C.ar         1 SNT605   0.0000
    28 C23        -11.2580   -20.1990   -12.1940 C.3          1 SNT605   0.0000
    29 H1         -13.0305   -21.1826   -15.9278 H            1 SNT605   0.0000
    30 H2         -11.6285   -21.4664   -17.8558 H            1 SNT605   0.0000
    31 H3          -9.4873   -22.5167   -17.6241 H            1 SNT605   0.0000
    32 H4         -13.0470   -20.0923   -10.1144 H            1 SNT605   0.0000
    33 H5         -13.4333   -19.4594    -8.1211 H            1 SNT605   0.0000
    34 H6         -13.4020   -20.8793    -7.3153 H            1 SNT605   0.0000
    35 H7         -13.9263   -19.1227    -5.8083 H            1 SNT605   0.0000
    36 H8         -15.2050   -18.7025    -6.7329 H            1 SNT605   0.0000
    37 H9         -16.6149   -20.7656    -4.0722 H            1 SNT605   0.0000
    38 H10        -16.4441   -19.1935    -4.4797 H            1 SNT605   0.0000
    39 H11        -14.5766   -21.9923    -3.2929 H            1 SNT605   0.0000
    40 H12        -12.8019   -21.7292    -1.6967 H            1 SNT605   0.0000
    41 H13        -12.1772   -19.5586    -0.9046 H            1 SNT605   0.0000
    42 H14         -8.7592   -23.3382   -15.4941 H            1 SNT605   0.0000
    43 H15        -10.1930   -23.1467   -13.5788 H            1 SNT605   0.0000
    44 H16        -15.6919   -22.7954   -10.8991 H            1 SNT605   0.0000
    45 H17        -16.1131   -23.0127   -12.4618 H            1 SNT605   0.0000
    46 H18        -15.1942   -24.1279   -11.7012 H            1 SNT605   0.0000
    47 H19        -17.1483   -20.1835    -6.8533 H            1 SNT605   0.0000
    48 H20        -17.1134   -21.6262    -6.0891 H            1 SNT605   0.0000
    49 H21        -15.4554   -22.4070    -7.5471 H            1 SNT605   0.0000
    50 H22        -16.7024   -21.8514    -8.4432 H            1 SNT605   0.0000
    51 H23        -13.2940   -17.6045    -1.7473 H            1 SNT605   0.0000
    52 H24        -15.0380   -17.8529    -3.3712 H            1 SNT605   0.0000
    53 H25        -11.4019   -19.7361   -11.3194 H            1 SNT605   0.0000
    54 H26        -10.3860   -20.6881   -12.1728 H            1 SNT605   0.0000
    55 H27        -11.2431   -19.5228   -12.9306 H            1 SNT605   0.0000
    56 H28        -14.8767   -21.2608    -5.5723 H            1 SNT605   0.0000
@<TRIPOS>BOND
     1    1    2      ar
     2    1    5       1
     3    1   21      ar
     4    2    3      ar
     5    3    4      ar
     6    4   20      ar
     7    5    9       1
     8    5   10       1
     9    6    7       1
    10    6   12       2
    11    7   13       1
    12    7   25       1
    13    8   14       1
    14    8   15       1
    15    8   24       1
    16    9   22       2
    17   10   11       2
    18   10   28       1
    19   11   12       1
    20   11   22       1
    21   13   14       1
    22   15   16       1
    23   16   17      ar
    24   16   27      ar
    25   17   18      ar
    26   18   19      ar
    27   19   26      ar
    28   20   21      ar
    29   22   23       1
    30   24   25       1
    31   26   27      ar
    32    2   29       1
    33    3   30       1
    34    4   31       1
    35   12   32       1
    36   13   33       1
    37   13   34       1
    38   14   35       1
    39   14   36       1
    40   15   37       1
    41   15   38       1
    42   17   39       1
    43   18   40       1
    44   19   41       1
    45   20   42       1
    46   21   43       1
    47   23   44       1
    48   23   45       1
    49   23   46       1
    50   24   47       1
    51   24   48       1
    52   25   49       1
    53   25   50       1
    54   26   51       1
    55   27   52       1
    56   28   53       1
    57   28   54       1
    58   28   55       1
    59    8   56       1
@<TRIPOS>SUBSTRUCTURE
     1 SNT605      1 GROUP             4 A     SNT     0 **** SNT A 605
