@<TRIPOS>MOLECULE
1jx2_ADP_2_ligand
   39    41     1     0     0
SMALL
NO_CHARGES


@<TRIPOS>ATOM
     1 PB         -59.7500   -61.5460    62.5710 P.3          1 ADP1203   0.0000
     2 O1B        -59.8810   -61.4570    61.0770 O.co2        1 ADP1203   0.0000
     3 O2B        -60.8340   -62.2580    63.1890 O.co2        1 ADP1203  -1.0000
     4 O3B        -58.4010   -62.1780    62.9490 O.co2        1 ADP1203  -1.0000
     5 PA         -60.7110   -59.5110    64.4410 P.3          1 ADP1203   0.0000
     6 O1A        -62.0920   -59.5120    64.0200 O.co2        1 ADP1203   0.0000
     7 O2A        -60.4390   -60.1700    65.7220 O.co2        1 ADP1203  -1.0000
     8 O3A        -59.8400   -60.0950    63.2150 O.3          1 ADP1203   0.0000
     9 O5'        -60.3340   -57.9620    64.5510 O.3          1 ADP1203   0.0000
    10 C5'        -59.0830   -57.5980    65.1910 C.3          1 ADP1203   0.0000
    11 C4'        -59.2980   -56.2960    65.9220 C.3          1 ADP1203   0.0000
    12 O4'        -59.6730   -55.3940    64.9110 O.3          1 ADP1203   0.0000
    13 C3'        -60.4960   -56.2760    66.8160 C.3          1 ADP1203   0.0000
    14 O3'        -60.4840   -57.0490    67.9920 O.3          1 ADP1203   0.0000
    15 C2'        -60.7490   -54.8120    66.9270 C.3          1 ADP1203   0.0000
    16 O2'        -59.8180   -54.1520    67.8240 O.3          1 ADP1203   0.0000
    17 C1'        -60.5890   -54.4390    65.4780 C.3          1 ADP1203   0.0000
    18 N9         -61.8250   -54.4730    64.6660 N.pl3        1 ADP1203   0.0000
    19 C8         -62.1030   -55.2630    63.5840 C.2          1 ADP1203   0.0000
    20 N7         -63.2200   -54.9830    63.0170 N.2          1 ADP1203   0.0000
    21 C5         -63.7330   -53.9510    63.7540 C.ar         1 ADP1203   0.0000
    22 C6         -64.9340   -53.2100    63.6150 C.ar         1 ADP1203   0.0000
    23 N6         -65.7530   -53.4100    62.5830 N.pl3        1 ADP1203   0.0000
    24 N1         -65.1930   -52.2030    64.5500 N.ar         1 ADP1203   0.0000
    25 C2         -64.2510   -51.9670    65.5670 C.ar         1 ADP1203   0.0000
    26 N3         -63.0870   -52.6200    65.7480 N.ar         1 ADP1203   0.0000
    27 C4         -62.8920   -53.6160    64.7910 C.ar         1 ADP1203   0.0000
    28 H5'1       -58.3681   -57.4861    64.5007 H            1 ADP1203   0.0000
    29 H5'2       -58.8126   -58.3106    65.8384 H            1 ADP1203   0.0000
    30 H4'        -58.4721   -55.9969    66.3999 H            1 ADP1203   0.0000
    31 H3'        -61.2482   -56.6373    66.2650 H            1 ADP1203   0.0000
    32 H5         -59.5457   -57.1298    68.3282 H            1 ADP1203   0.0000
    33 H2'        -61.6895   -54.6463    67.2236 H            1 ADP1203   0.0000
    34 H7         -58.9436   -54.6370    67.8127 H            1 ADP1203   0.0000
    35 H1'        -60.1855   -53.5259    65.4192 H            1 ADP1203   0.0000
    36 H9         -61.4940   -55.9893    63.2653 H            1 ADP1203   0.0000
    37 H10        -66.5955   -52.8773    62.5027 H            1 ADP1203   0.0000
    38 H11        -65.5251   -54.0928    61.8889 H            1 ADP1203   0.0000
    39 H12        -64.4669   -51.2420    66.2211 H            1 ADP1203   0.0000
@<TRIPOS>BOND
     1    1    2      ar
     2    1    3      ar
     3    1    4      ar
     4    1    8       1
     5    5    6      ar
     6    5    7      ar
     7    5    8       1
     8    5    9       1
     9    9   10       1
    10   10   11       1
    11   11   12       1
    12   11   13       1
    13   12   17       1
    14   13   14       1
    15   13   15       1
    16   15   16       1
    17   15   17       1
    18   17   18       1
    19   18   19       1
    20   18   27       1
    21   19   20       2
    22   20   21       1
    23   21   22      ar
    24   21   27      ar
    25   22   23       1
    26   22   24      ar
    27   24   25      ar
    28   25   26      ar
    29   26   27      ar
    30   25   39       1
    31   23   38       1
    32   23   37       1
    33   10   28       1
    34   10   29       1
    35   11   30       1
    36   13   31       1
    37   14   32       1
    38   15   33       1
    39   16   34       1
    40   17   35       1
    41   19   36       1
@<TRIPOS>SUBSTRUCTURE
     1 ADP1203     1 GROUP             4 A     ADP     0 **** ADP A1203
