@<TRIPOS>MOLECULE
4dpe_NGH_1_ligand
   40    40     1     0     0
SMALL
NO_CHARGES


@<TRIPOS>ATOM
     1 C1           2.2130    -8.0480    -1.4740 C.ar         1 NGH313   0.0000
     2 C2           1.7810    -7.6930    -2.7650 C.ar         1 NGH313   0.0000
     3 C3           2.4310    -8.0900    -3.9130 C.ar         1 NGH313   0.0000
     4 C4           3.6020    -8.8600    -3.7800 C.ar         1 NGH313   0.0000
     5 C5           4.0260    -9.2000    -2.4900 C.ar         1 NGH313   0.0000
     6 C6           3.3600    -8.8110    -1.3220 C.ar         1 NGH313   0.0000
     7 O1           1.9340    -7.6970    -5.1330 O.3          1 NGH313   0.0000
     8 C7           2.2610    -8.3310    -6.3660 C.3          1 NGH313   0.0000
     9 S1           3.9620    -9.2150     0.1570 S.o2         1 NGH313   0.0000
    10 O2           3.6170    -8.1540     1.1620 O.2          1 NGH313   0.0000
    11 O3           5.4160    -9.2680    -0.1240 O.2          1 NGH313   0.0000
    12 N            3.3960   -10.5320     0.6770 N.3          1 NGH313   0.0000
    13 C9           4.1060   -11.7710     0.3770 C.3          1 NGH313   0.0000
    14 C10          2.1620   -10.4700     1.5120 C.3          1 NGH313   0.0000
    15 C11          0.8930   -10.4500     0.6570 C.2          1 NGH313   0.0000
    16 N1          -0.0120    -9.4850     0.8490 N.am         1 NGH313   0.0000
    17 O4          -1.0520    -9.4290     0.1760 O.3          1 NGH313  -1.0000
    18 O5           0.7290   -11.3150    -0.1910 O.2          1 NGH313   0.0000
    19 C12          4.3140   -12.5540     1.6910 C.3          1 NGH313   0.0000
    20 C13          4.0740   -14.0750     1.5230 C.3          1 NGH313   0.0000
    21 C14          5.6850   -12.2180     2.2990 C.3          1 NGH313   0.0000
    22 H1           1.6957    -7.7517    -0.6711 H            1 NGH313   0.0000
    23 H2           0.9627    -7.1251    -2.8536 H            1 NGH313   0.0000
    24 H3           4.1166    -9.1559    -4.5847 H            1 NGH313   0.0000
    25 H4           4.8537    -9.7535    -2.3975 H            1 NGH313   0.0000
    26 H5           1.7813    -7.8725    -7.1141 H            1 NGH313   0.0000
    27 H6           3.2477    -8.2745    -6.5185 H            1 NGH313   0.0000
    28 H7           1.9836    -9.2911    -6.3310 H            1 NGH313   0.0000
    29 H8           4.9934   -11.5594    -0.0325 H            1 NGH313   0.0000
    30 H9           3.5673   -12.3214    -0.2608 H            1 NGH313   0.0000
    31 H10          2.1898    -9.6395     2.0683 H            1 NGH313   0.0000
    32 H11          2.1360   -11.2711     2.1100 H            1 NGH313   0.0000
    33 H12          0.1535    -8.7926     1.5513 H            1 NGH313   0.0000
    34 H13          3.6245   -12.2233     2.3354 H            1 NGH313   0.0000
    35 H14          4.2209   -14.5344     2.3990 H            1 NGH313   0.0000
    36 H15          3.1350   -14.2325     1.2173 H            1 NGH313   0.0000
    37 H16          4.7112   -14.4400     0.8442 H            1 NGH313   0.0000
    38 H17          5.8076   -12.7309     3.1487 H            1 NGH313   0.0000
    39 H18          6.4063   -12.4667     1.6526 H            1 NGH313   0.0000
    40 H19          5.7332   -11.2379     2.4914 H            1 NGH313   0.0000
@<TRIPOS>BOND
     1    1    2      ar
     2    1    6      ar
     3    2    3      ar
     4    3    4      ar
     5    3    7       1
     6    4    5      ar
     7    5    6      ar
     8    6    9       1
     9    7    8       1
    10    9   10       2
    11    9   11       2
    12    9   12       1
    13   12   13       1
    14   12   14       1
    15   13   19       1
    16   14   15       1
    17   15   16      am
    18   15   18       2
    19   16   17       1
    20   19   20       1
    21   19   21       1
    22    1   22       1
    23    2   23       1
    24    4   24       1
    25    5   25       1
    26    8   26       1
    27    8   27       1
    28    8   28       1
    29   13   29       1
    30   13   30       1
    31   14   31       1
    32   14   32       1
    33   16   33       1
    34   21   40       1
    35   19   34       1
    36   20   35       1
    37   20   36       1
    38   20   37       1
    39   21   38       1
    40   21   39       1
@<TRIPOS>SUBSTRUCTURE
     1 NGH313      1 GROUP             4 B     NGH     0 **** NGH B 313
