@<TRIPOS>MOLECULE
4bup_SAM_1_ligand
   50    52     1     0     0
SMALL
NO_CHARGES


@<TRIPOS>ATOM
     1 N            7.6930    49.4820    10.6770 N.4          1 SAM500   1.0000
     2 CA           6.3230    49.2840    10.2050 C.3          1 SAM500   0.0000
     3 C            5.4110    50.1840    11.0220 C.2          1 SAM500   0.0000
     4 O            5.7610    50.5370    12.1530 O.co2        1 SAM500   0.0000
     5 OXT          4.3200    50.5570    10.5740 O.co2        1 SAM500  -1.0000
     6 CB           5.8890    47.8320    10.3690 C.3          1 SAM500   0.0000
     7 CG           6.0820    46.9700     9.1210 C.3          1 SAM500   0.0000
     8 SD           4.9270    47.4570     7.8060 S.3          1 SAM500   1.0000
     9 CE           4.2350    45.8580     7.2730 C.3          1 SAM500   0.0000
    10 C5'          6.0920    47.7040     6.4320 C.3          1 SAM500   0.0000
    11 C4'          6.6430    49.1270     6.3380 C.3          1 SAM500   0.0000
    12 O4'          7.6480    49.3400     7.3140 O.3          1 SAM500   0.0000
    13 C3'          7.2910    49.4570     4.9960 C.3          1 SAM500   0.0000
    14 O3'          6.3970    49.9800     4.0590 O.3          1 SAM500   0.0000
    15 C2'          8.2640    50.5260     5.4030 C.3          1 SAM500   0.0000
    16 O2'          7.5710    51.7060     5.6980 O.3          1 SAM500   0.0000
    17 C1'          8.7690    49.9450     6.7050 C.3          1 SAM500   0.0000
    18 N9           9.7050    48.8580     6.3840 N.pl3        1 SAM500   0.0000
    19 C8           9.6900    47.5930     6.9150 C.2          1 SAM500   0.0000
    20 N7          10.6990    46.8650     6.3620 N.2          1 SAM500   0.0000
    21 C5          11.3510    47.6460     5.4730 C.ar         1 SAM500   0.0000
    22 C6          12.4380    47.4210     4.6380 C.ar         1 SAM500   0.0000
    23 N6          13.0720    46.2570     4.5960 N.pl3        1 SAM500   0.0000
    24 N1          12.8690    48.4350     3.8170 N.ar         1 SAM500   0.0000
    25 C2          12.2450    49.6680     3.8290 C.ar         1 SAM500   0.0000
    26 N3          11.1760    49.8850     4.6550 N.ar         1 SAM500   0.0000
    27 C4          10.7290    48.9020     5.4690 C.ar         1 SAM500   0.0000
    28 H1           8.3137    48.8987    10.1530 H            1 SAM500   0.0000
    29 H2           7.9526    50.4399    10.5544 H            1 SAM500   0.0000
    30 HA           6.2644    49.5406     9.2403 H            1 SAM500   0.0000
    31 HB1          4.9184    47.8210    10.6096 H            1 SAM500   0.0000
    32 HB2          6.4215    47.4286    11.1131 H            1 SAM500   0.0000
    33 HG1          5.9222    46.0117     9.3579 H            1 SAM500   0.0000
    34 HG2          7.0192    47.0797     8.7899 H            1 SAM500   0.0000
    35 HE1          3.5742    46.0092     6.5378 H            1 SAM500   0.0000
    36 HE2          4.9726    45.2692     6.9424 H            1 SAM500   0.0000
    37 HE3          3.7785    45.4180     8.0463 H            1 SAM500   0.0000
    38 H5'1         5.6199    47.4916     5.5764 H            1 SAM500   0.0000
    39 H5'2         6.8605    47.0758     6.5535 H            1 SAM500   0.0000
    40 H4'          5.8960    49.7716     6.5007 H            1 SAM500   0.0000
    41 H3'          7.7700    48.6610     4.6261 H            1 SAM500   0.0000
    42 H15          6.8828    50.1735     3.2066 H            1 SAM500   0.0000
    43 H2'          8.9924    50.6624     4.7316 H            1 SAM500   0.0000
    44 H17          7.8817    52.4361     5.0894 H            1 SAM500   0.0000
    45 H1'          9.1860    50.6401     7.2906 H            1 SAM500   0.0000
    46 H19          9.0415    47.2590     7.5990 H            1 SAM500   0.0000
    47 H20         13.8510    46.1338     3.9812 H            1 SAM500   0.0000
    48 H21         12.7711    45.5024     5.1791 H            1 SAM500   0.0000
    49 H22         12.5746    50.4013     3.2343 H            1 SAM500   0.0000
    50 H23          7.7495    49.2428    11.6463 H            1 SAM500   0.0000
@<TRIPOS>BOND
     1    1    2       1
     2    2    3       1
     3    2    6       1
     4    3    4      ar
     5    3    5      ar
     6    6    7       1
     7    7    8       1
     8    8    9       1
     9    8   10       1
    10   10   11       1
    11   11   12       1
    12   11   13       1
    13   12   17       1
    14   13   14       1
    15   13   15       1
    16   15   16       1
    17   15   17       1
    18   17   18       1
    19   18   19       1
    20   18   27       1
    21   19   20       2
    22   20   21       1
    23   21   22      ar
    24   21   27      ar
    25   22   23       1
    26   22   24      ar
    27   24   25      ar
    28   25   26      ar
    29   26   27      ar
    30    1   28       1
    31    1   29       1
    32    2   30       1
    33    1   50       1
    34    6   31       1
    35    6   32       1
    36    7   33       1
    37    7   34       1
    38    9   35       1
    39    9   36       1
    40    9   37       1
    41   10   38       1
    42   10   39       1
    43   11   40       1
    44   13   41       1
    45   14   42       1
    46   15   43       1
    47   16   44       1
    48   17   45       1
    49   19   46       1
    50   23   47       1
    51   23   48       1
    52   25   49       1
@<TRIPOS>SUBSTRUCTURE
     1 SAM500      1 GROUP             4 A     SAM     0 **** SAM A 500
