@<TRIPOS>MOLECULE
4iei_ADP_1_ligand
   39    41     1     0     0
SMALL
NO_CHARGES


@<TRIPOS>ATOM
     1 PB          21.6910    36.9970    34.6730 P.3          1 ADP800   0.0000
     2 O1B         21.3250    38.3360    35.2840 O.co2        1 ADP800   0.0000
     3 O2B         22.6240    37.0930    33.4950 O.co2        1 ADP800  -1.0000
     4 O3B         22.0640    35.9250    35.6820 O.co2        1 ADP800  -1.0000
     5 PA          20.0370    35.8950    32.6000 P.3          1 ADP800   0.0000
     6 O1A         20.0900    37.0430    31.6070 O.co2        1 ADP800   0.0000
     7 O2A         20.9170    34.6860    32.3950 O.co2        1 ADP800  -1.0000
     8 O3A         20.2660    36.5070    34.0760 O.3          1 ADP800   0.0000
     9 O5'         18.5140    35.3910    32.7690 O.3          1 ADP800   0.0000
    10 C5'         18.2360    34.3330    33.6970 C.3          1 ADP800   0.0000
    11 C4'         17.1850    33.4000    33.1110 C.3          1 ADP800   0.0000
    12 O4'         15.9170    34.0560    32.9610 O.3          1 ADP800   0.0000
    13 C3'         17.5700    32.9200    31.7160 C.3          1 ADP800   0.0000
    14 O3'         18.3700    31.7290    31.7440 O.3          1 ADP800   0.0000
    15 C2'         16.2350    32.6940    31.0430 C.3          1 ADP800   0.0000
    16 O2'         15.8190    31.3690    31.3390 O.3          1 ADP800   0.0000
    17 C1'         15.2820    33.6390    31.7520 C.3          1 ADP800   0.0000
    18 N9          15.0450    34.8440    30.9180 N.pl3        1 ADP800   0.0000
    19 C8          15.6320    36.0480    31.0730 C.2          1 ADP800   0.0000
    20 N7          15.1790    36.9370    30.1540 N.2          1 ADP800   0.0000
    21 C5          14.2790    36.2930    29.3870 C.ar         1 ADP800   0.0000
    22 C6          13.4250    36.6420    28.2270 C.ar         1 ADP800   0.0000
    23 N6          13.4400    37.8890    27.6940 N.pl3        1 ADP800   0.0000
    24 N1          12.6290    35.6720    27.7280 N.ar         1 ADP800   0.0000
    25 C2          12.6080    34.4310    28.2530 C.ar         1 ADP800   0.0000
    26 N3          13.3530    34.0390    29.3070 N.ar         1 ADP800   0.0000
    27 C4          14.1920    34.9140    29.9010 C.ar         1 ADP800   0.0000
    28 H5'1        17.8950    34.7223    34.5527 H            1 ADP800   0.0000
    29 H5'2        19.0747    33.8186    33.8757 H            1 ADP800   0.0000
    30 H4'         17.0763    32.6085    33.7124 H            1 ADP800   0.0000
    31 H3'         18.0665    33.6449    31.2384 H            1 ADP800   0.0000
    32 H5          18.1989    31.1930    30.9173 H            1 ADP800   0.0000
    33 H2'         16.2746    32.8662    30.0587 H            1 ADP800   0.0000
    34 H7          14.9357    31.1921    30.9048 H            1 ADP800   0.0000
    35 H1'         14.4177    33.1777    31.9527 H            1 ADP800   0.0000
    36 H9          16.3130    36.2583    31.7745 H            1 ADP800   0.0000
    37 H10         12.8565    38.1052    26.9112 H            1 ADP800   0.0000
    38 H11         14.0346    38.5922    28.0838 H            1 ADP800   0.0000
    39 H12         12.0003    33.7565    27.8337 H            1 ADP800   0.0000
@<TRIPOS>BOND
     1    1    2      ar
     2    1    3      ar
     3    1    4      ar
     4    1    8       1
     5    5    6      ar
     6    5    7      ar
     7    5    8       1
     8    5    9       1
     9    9   10       1
    10   10   11       1
    11   11   12       1
    12   11   13       1
    13   12   17       1
    14   13   14       1
    15   13   15       1
    16   15   16       1
    17   15   17       1
    18   17   18       1
    19   18   19       1
    20   18   27       1
    21   19   20       2
    22   20   21       1
    23   21   22      ar
    24   21   27      ar
    25   22   23       1
    26   22   24      ar
    27   24   25      ar
    28   25   26      ar
    29   26   27      ar
    30   25   39       1
    31   23   38       1
    32   23   37       1
    33   10   28       1
    34   10   29       1
    35   11   30       1
    36   13   31       1
    37   14   32       1
    38   15   33       1
    39   16   34       1
    40   17   35       1
    41   19   36       1
@<TRIPOS>SUBSTRUCTURE
     1 ADP800      1 GROUP             4 A     ADP     0 **** ADP A 800
