@<TRIPOS>MOLECULE
2czf_XMP_2_ligand
   35    37     1     0     0
SMALL
NO_CHARGES


@<TRIPOS>ATOM
     1 P           -5.5700    -8.5730    33.3640 P.3          1 XMP209   0.0000
     2 O1P         -5.1670    -9.9300    33.7920 O.co2        1 XMP209   0.0000
     3 O2P         -5.1510    -7.4560    34.4470 O.co2        1 XMP209  -1.0000
     4 O5'         -4.8780    -8.2090    31.9580 O.3          1 XMP209   0.0000
     5 O3P         -7.1620    -8.4420    33.1640 O.co2        1 XMP209  -1.0000
     6 C5'         -4.7390    -6.8900    31.4280 C.3          1 XMP209   0.0000
     7 C4'         -4.0900    -7.0340    30.0490 C.3          1 XMP209   0.0000
     8 O4'         -3.0250    -7.9970    30.1270 O.3          1 XMP209   0.0000
     9 C1'         -3.0580    -8.8200    28.9460 C.3          1 XMP209   0.0000
    10 N9          -3.4070   -10.2080    29.3360 N.pl3        1 XMP209   0.0000
    11 C4          -2.5630   -11.2320    29.2850 C.2          1 XMP209   0.0000
    12 N3          -1.2280   -11.3320    28.8790 N.pl3        1 XMP209   0.0000
    13 N1          -1.2620   -13.6950    29.3900 N.pl3        1 XMP209   0.0000
    14 C2          -0.5690   -12.5700    28.9240 C.2          1 XMP209   0.0000
    15 O2           0.5890   -12.6700    28.5240 O.2          1 XMP209   0.0000
    16 C6          -2.6000   -13.5850    29.7970 C.2          1 XMP209   0.0000
    17 O6          -3.1920   -14.5780    30.2150 O.2          1 XMP209   0.0000
    18 C5          -3.2510   -12.3580    29.7410 C.2          1 XMP209   0.0000
    19 N7          -4.4810   -11.9620    30.0440 N.2          1 XMP209   0.0000
    20 C8          -4.5740   -10.6550    29.7970 C.2          1 XMP209   0.0000
    21 C2'         -4.1040    -8.1930    28.0210 C.3          1 XMP209   0.0000
    22 O2'         -3.5020    -7.1350    27.2710 O.3          1 XMP209   0.0000
    23 C3'         -5.0830    -7.6300    29.0500 C.3          1 XMP209   0.0000
    24 O3'         -5.8240    -6.5630    28.4540 O.3          1 XMP209   0.0000
    25 H5'1        -4.1579    -6.3381    32.0261 H            1 XMP209   0.0000
    26 H5'2        -5.6363    -6.4569    31.3427 H            1 XMP209   0.0000
    27 H4'         -3.7474    -6.1522    29.7248 H            1 XMP209   0.0000
    28 H1'         -2.1626    -8.8088    28.5008 H            1 XMP209   0.0000
    29 H5          -0.7424   -10.5196    28.5561 H            1 XMP209   0.0000
    30 H6          -0.8004   -14.5811    29.4327 H            1 XMP209   0.0000
    31 H7          -5.3923   -10.0973    29.9362 H            1 XMP209   0.0000
    32 H2'         -4.5348    -8.8734    27.4282 H            1 XMP209   0.0000
    33 H9          -2.5386    -7.0520    27.5260 H            1 XMP209   0.0000
    34 H3'         -5.6687    -8.3321    29.4550 H            1 XMP209   0.0000
    35 H11         -6.6433    -6.3817    28.9979 H            1 XMP209   0.0000
@<TRIPOS>BOND
     1    1    2      ar
     2    1    3      ar
     3    1    4       1
     4    1    5      ar
     5    4    6       1
     6    6    7       1
     7    7    8       1
     8    7   23       1
     9    8    9       1
    10    9   10       1
    11    9   21       1
    12   10   11       1
    13   10   20       1
    14   11   12       1
    15   11   18       2
    16   12   14       1
    17   13   14       1
    18   13   16       1
    19   14   15       2
    20   16   17       2
    21   16   18       1
    22   18   19       1
    23   19   20       2
    24   21   22       1
    25   21   23       1
    26   23   24       1
    27   24   35       1
    28   23   34       1
    29    6   25       1
    30    6   26       1
    31    7   27       1
    32    9   28       1
    33   12   29       1
    34   13   30       1
    35   20   31       1
    36   21   32       1
    37   22   33       1
@<TRIPOS>SUBSTRUCTURE
     1 XMP209      1 GROUP             4 B     XMP     0 **** XMP B 209
