@<TRIPOS>MOLECULE
5ebe_C5P_1_ligand
   33    34     1     0     0
SMALL
NO_CHARGES


@<TRIPOS>ATOM
     1 O3P         11.8370    -0.7010    -9.3160 O.co2        1 C5P607   0.0000
     2 P           12.9310    -1.6610    -8.8950 P.3          1 C5P607   0.0000
     3 O1P         12.9300    -3.0230    -9.5210 O.co2        1 C5P607  -1.0000
     4 O2P         14.3120    -1.0900    -8.6990 O.co2        1 C5P607  -1.0000
     5 O5'         12.4450    -1.9990    -7.4250 O.3          1 C5P607   0.0000
     6 C5'         12.7370    -1.0190    -6.4410 C.3          1 C5P607   0.0000
     7 C4'         11.9110    -1.1880    -5.1680 C.3          1 C5P607   0.0000
     8 O4'         12.2300    -0.0960    -4.2940 O.3          1 C5P607   0.0000
     9 C3'         10.4070    -1.1790    -5.4350 C.3          1 C5P607   0.0000
    10 O3'          9.7330    -2.2330    -4.7280 O.3          1 C5P607   0.0000
    11 C2'          9.9530     0.1890    -4.9700 C.3          1 C5P607   0.0000
    12 O2'          8.8370     0.0450    -4.0870 O.3          1 C5P607   0.0000
    13 C1'         11.1520     0.8380    -4.2700 C.3          1 C5P607   0.0000
    14 N1          11.6050     2.1220    -4.8640 N.pl3        1 C5P607   0.0000
    15 C2          11.5320     3.2720    -4.0320 C.2          1 C5P607   0.0000
    16 N3          11.9250     4.4650    -4.5070 N.2          1 C5P607   0.0000
    17 C4          12.3940     4.5700    -5.7620 C.2          1 C5P607   0.0000
    18 C5          12.4810     3.4710    -6.6180 C.2          1 C5P607   0.0000
    19 C6          12.0800     2.2380    -6.1320 C.2          1 C5P607   0.0000
    20 O2          11.0930     3.2020    -2.8560 O.2          1 C5P607   0.0000
    21 N4          12.7800     5.7870    -6.1560 N.pl3        1 C5P607   0.0000
    22 H5'1        12.5488    -0.1153    -6.8255 H            1 C5P607   0.0000
    23 H5'2        13.7061    -1.0849    -6.2033 H            1 C5P607   0.0000
    24 H4'         12.1616    -2.0486    -4.7247 H            1 C5P607   0.0000
    25 H3'         10.2397    -1.2726    -6.4164 H            1 C5P607   0.0000
    26 H5           9.2754    -2.8343    -5.3831 H            1 C5P607   0.0000
    27 H2'          9.6867     0.7408    -5.7603 H            1 C5P607   0.0000
    28 H7           8.6173    -0.9250    -3.9830 H            1 C5P607   0.0000
    29 H1'         10.9042     1.0051    -3.3157 H            1 C5P607   0.0000
    30 H9          12.8221     3.5709    -7.5527 H            1 C5P607   0.0000
    31 H10         12.1402     1.4291    -6.7168 H            1 C5P607   0.0000
    32 H11         13.1372     5.9235    -7.0800 H            1 C5P607   0.0000
    33 H12         12.7117     6.5613    -5.5269 H            1 C5P607   0.0000
@<TRIPOS>BOND
     1    1    2      ar
     2    2    3      ar
     3    2    4      ar
     4    2    5       1
     5    5    6       1
     6    6    7       1
     7    7    8       1
     8    7    9       1
     9    8   13       1
    10    9   10       1
    11    9   11       1
    12   11   12       1
    13   11   13       1
    14   13   14       1
    15   14   15       1
    16   14   19       1
    17   15   16       1
    18   15   20       2
    19   16   17       2
    20   17   18       1
    21   17   21       1
    22   18   19       2
    23   21   33       1
    24   21   32       1
    25    6   22       1
    26    6   23       1
    27    7   24       1
    28    9   25       1
    29   10   26       1
    30   11   27       1
    31   12   28       1
    32   13   29       1
    33   18   30       1
    34   19   31       1
@<TRIPOS>SUBSTRUCTURE
     1 C5P607      1 GROUP             4 A     C5P     0 **** C5P A 607
