@<TRIPOS>MOLECULE
2qyo_QSO_2_ligand
   33    35     1     0     0
SMALL
NO_CHARGES


@<TRIPOS>ATOM
     1 C2          -6.3120     3.9750    36.6570 C.2          1 QSO701   0.0000
     2 C4          -8.1950     2.5450    37.3880 C.2          1 QSO701   0.0000
     3 O4          -9.1280     1.6990    31.7850 O.3          1 QSO701   0.0000
     4 C4A         -8.4860     2.2920    35.9240 C.ar         1 QSO701   0.0000
     5 C8A         -7.6180     2.9400    34.9640 C.ar         1 QSO701   0.0000
     6 C7          -8.9300     1.8850    33.1140 C.ar         1 QSO701   0.0000
     7 C6          -9.7620     1.2690    34.0930 C.ar         1 QSO701   0.0000
     8 C5          -9.5750     1.4450    35.4950 C.ar         1 QSO701   0.0000
     9 C8          -7.8740     2.7110    33.5820 C.ar         1 QSO701   0.0000
    10 C3          -7.0180     3.4510    37.7080 C.2          1 QSO701   0.0000
    11 O1          -6.5640     3.7590    35.3100 O.2          1 QSO701   0.0000
    12 C1'         -6.6490     3.7390    39.1190 C.ar         1 QSO701   0.0000
    13 O2          -8.8720     2.0450    38.2920 O.2          1 QSO701   0.0000
    14 C2'         -7.1130     4.8860    39.8370 C.ar         1 QSO701   0.0000
    15 C3'         -6.7240     5.1070    41.1920 C.ar         1 QSO701   0.0000
    16 C4'         -5.8600     4.1990    41.8910 C.ar         1 QSO701   0.0000
    17 C5'         -5.4050     3.0530    41.1580 C.ar         1 QSO701   0.0000
    18 C6'         -5.7880     2.8300    39.8100 C.ar         1 QSO701   0.0000
    19 O5          -5.4890     4.4150    43.2010 O.3          1 QSO701   0.0000
    20 O3         -10.4280     0.8080    36.3500 O.3          1 QSO701   0.0000
    21 CM          -4.1110     4.7100    43.3840 C.3          1 QSO701   0.0000
    22 H1          -5.5409     4.5704    36.8827 H            1 QSO701   0.0000
    23 H2          -9.8755     1.1154    31.4677 H            1 QSO701   0.0000
    24 H3         -10.5124     0.6858    33.7819 H            1 QSO701   0.0000
    25 H4          -7.2815     3.1532    32.9086 H            1 QSO701   0.0000
    26 H2'         -7.7175     5.5411    39.3837 H            1 QSO701   0.0000
    27 H3'         -7.0633     5.9182    41.6684 H            1 QSO701   0.0000
    28 H5'         -4.8024     2.3943    41.6086 H            1 QSO701   0.0000
    29 H6'         -5.4484     2.0195    39.3328 H            1 QSO701   0.0000
    30 H9         -10.3177     0.9148    37.3381 H            1 QSO701   0.0000
    31 HM1         -3.9268     4.8521    44.3566 H            1 QSO701   0.0000
    32 HM2         -3.5592     3.9465    43.0484 H            1 QSO701   0.0000
    33 HM3         -3.8772     5.5389    42.8759 H            1 QSO701   0.0000
@<TRIPOS>BOND
     1    1   10       2
     2    1   11       1
     3    2    4       1
     4    2   10       1
     5    2   13       2
     6    3    6       1
     7    4    5      ar
     8    4    8      ar
     9    5    9      ar
    10    5   11       1
    11    6    7      ar
    12    6    9      ar
    13    7    8      ar
    14    8   20       1
    15   10   12       1
    16   12   14      ar
    17   12   18      ar
    18   14   15      ar
    19   15   16      ar
    20   16   17      ar
    21   16   19       1
    22   17   18      ar
    23   19   21       1
    24    1   22       1
    25    3   23       1
    26    7   24       1
    27    9   25       1
    28   14   26       1
    29   15   27       1
    30   17   28       1
    31   18   29       1
    32   20   30       1
    33   21   31       1
    34   21   32       1
    35   21   33       1
@<TRIPOS>SUBSTRUCTURE
     1 QSO701      1 GROUP             4 B     QSO     0 **** QSO B 701
