@<TRIPOS>MOLECULE
3smk_CW7_1_ligand
   94   100     1     0     0
SMALL
NO_CHARGES


@<TRIPOS>ATOM
     1 C1          27.9760   -17.9670    -4.7370 C.3          1 CW7232   0.0000
     2 O1          27.9940   -16.5900    -5.1640 O.3          1 CW7232   0.0000
     3 CAA         21.5870   -22.8180     0.4840 C.2          1 CW7232   0.0000
     4 CAB         22.8020   -22.1450     0.8240 C.2          1 CW7232   0.0000
     5 CAC         22.9060   -21.3000     2.0380 C.3          1 CW7232   0.0000
     6 CAD         22.9190   -22.0970     3.3920 C.3          1 CW7232   0.0000
     7 CAE         21.4160   -22.0920     3.9050 C.3          1 CW7232   0.0000
     8 CAF         20.8780   -20.7440     3.4340 C.3          1 CW7232   0.0000
     9 CAG         21.5050   -20.5630     2.0430 C.3          1 CW7232   0.0000
    10 CAH         21.3930   -19.1760     1.5010 C.3          1 CW7232   0.0000
    11 CAI         21.8220   -18.7770     0.1140 C.3          1 CW7232   0.0000
    12 CAJ         22.1970   -17.3100     0.2460 C.3          1 CW7232   0.0000
    13 CAK         23.7050   -17.4400     0.7250 C.3          1 CW7232   0.0000
    14 CAL         24.1370   -18.6060    -0.0270 C.2          1 CW7232   0.0000
    15 CAM         23.0830   -19.4030    -0.3470 C.2          1 CW7232   0.0000
    16 CAN         23.0570   -20.6750    -1.0660 C.3          1 CW7232   0.0000
    17 CAO         23.6640   -21.8620    -0.2660 C.3          1 CW7232   0.0000
    18 OAP         23.7980   -22.9190    -1.2610 O.3          1 CW7232   0.0000
    19 OAQ         23.8170   -20.5180    -2.2630 O.3          1 CW7232   0.0000
    20 CAR         23.2400   -20.7640    -3.4970 C.3          1 CW7232   0.0000
    21 CAS         24.5700   -20.9510    -4.1940 C.3          1 CW7232   0.0000
    22 CAT         25.1640   -19.6750    -4.8630 C.3          1 CW7232   0.0000
    23 CAU         24.2470   -18.4080    -4.8970 C.3          1 CW7232   0.0000
    24 CAV         23.0610   -18.3540    -3.9480 C.3          1 CW7232   0.0000
    25 OAW         22.4540   -19.6470    -3.9460 O.3          1 CW7232   0.0000
    26 CAX         22.0680   -17.2430    -4.4150 C.3          1 CW7232   0.0000
    27 OAY         21.0890   -17.7740    -5.3360 O.3          1 CW7232   0.0000
    28 CAZ         19.9230   -16.9300    -5.4920 C.3          1 CW7232   0.0000
    29 OBA         23.8020   -18.4100    -6.2640 O.3          1 CW7232   0.0000
    30 CBB         25.1190   -18.4570    -6.8350 C.3          1 CW7232   0.0000
    31 OBC         25.5870   -19.7400    -6.2800 O.3          1 CW7232   0.0000
    32 CBD         25.7740   -17.2640    -6.1150 C.3          1 CW7232   0.0000
    33 OBE         25.1090   -17.2340    -4.7830 O.3          1 CW7232   0.0000
    34 CBF         25.4300   -15.9190    -6.8300 C.3          1 CW7232   0.0000
    35 CBG         27.3170   -17.5200    -6.0550 C.3          1 CW7232   0.0000
    36 OBJ         24.6300   -22.1680    -4.8150 O.3          1 CW7232   0.0000
    37 CBK         25.6290   -18.9790    -0.3640 C.3          1 CW7232   0.0000
    38 CBL         26.4040   -19.3400     0.9170 C.3          1 CW7232   0.0000
    39 CBM         26.3750   -17.8700    -1.1240 C.3          1 CW7232   0.0000
    40 CBN         20.6070   -18.8640    -0.8380 C.3          1 CW7232   0.0000
    41 CBO         19.3310   -20.8310     3.2710 C.3          1 CW7232   0.0000
    42 OBP         18.6110   -21.0030     4.5360 O.3          1 CW7232   0.0000
    43 CBQ         17.2780   -21.2950     4.2600 C.3          1 CW7232   0.0000
    44 OBR         21.3530   -19.8200     4.3910 O.3          1 CW7232   0.0000
    45 H1          27.4114   -18.2468    -3.9605 H            1 CW7232   0.0000
    46 H2          28.8153   -18.5105    -4.7519 H            1 CW7232   0.0000
    47 HAA1        21.5418   -23.3824    -0.3403 H            1 CW7232   0.0000
    48 HAA2        20.7825   -22.7243     1.0705 H            1 CW7232   0.0000
    49 HAC         23.6669   -20.6539     1.9784 H            1 CW7232   0.0000
    50 HAD1        23.5160   -21.6471     4.0562 H            1 CW7232   0.0000
    51 HAD2        23.2336   -23.0343     3.2423 H            1 CW7232   0.0000
    52 HAE1        21.3791   -22.1621     4.9019 H            1 CW7232   0.0000
    53 HAE2        20.8979   -22.8445     3.4985 H            1 CW7232   0.0000
    54 HAG         20.9312   -21.1143     1.4373 H            1 CW7232   0.0000
    55 HAH1        21.9196   -18.5980     2.1244 H            1 CW7232   0.0000
    56 HAH2        20.4238   -18.9378     1.5640 H            1 CW7232   0.0000
    57 HAJ1        21.6320   -16.8442     0.9270 H            1 CW7232   0.0000
    58 HAJ2        22.1274   -16.8308    -0.6290 H            1 CW7232   0.0000
    59 HAK1        23.7647   -17.5964     1.7109 H            1 CW7232   0.0000
    60 HAK2        24.2380   -16.6292     0.4832 H            1 CW7232   0.0000
    61 HAN         22.1114   -20.8940    -1.3067 H            1 CW7232   0.0000
    62 HAO         24.5680   -21.6079     0.0779 H            1 CW7232   0.0000
    63 HAP         24.7069   -22.8733    -1.6755 H            1 CW7232   0.0000
    64 HAR         22.7064   -21.6097    -3.4909 H            1 CW7232   0.0000
    65 HAS         25.1898   -21.0846    -3.4207 H            1 CW7232   0.0000
    66 HAT         25.9753   -19.4263    -4.3338 H            1 CW7232   0.0000
    67 HAV         23.3853   -18.1404    -3.0265 H            1 CW7232   0.0000
    68 HAX1        22.5821   -16.5151    -4.8687 H            1 CW7232   0.0000
    69 HAX2        21.5962   -16.8698    -3.6162 H            1 CW7232   0.0000
    70 HAZ1        19.2891   -17.3535    -6.1391 H            1 CW7232   0.0000
    71 HAZ2        19.4711   -16.8190    -4.6069 H            1 CW7232   0.0000
    72 HAZ3        20.2035   -16.0346    -5.8377 H            1 CW7232   0.0000
    73 HBB         25.1413   -18.4032    -7.8333 H            1 CW7232   0.0000
    74 HBF1        25.8664   -15.1619    -6.3438 H            1 CW7232   0.0000
    75 HBF2        25.7645   -15.9472    -7.7720 H            1 CW7232   0.0000
    76 HBF3        24.4388   -15.7866    -6.8321 H            1 CW7232   0.0000
    77 HBG         27.7790   -17.7621    -6.9082 H            1 CW7232   0.0000
    78 HBJ         25.3897   -22.6976    -4.4378 H            1 CW7232   0.0000
    79 HBK         25.6143   -19.7903    -0.9485 H            1 CW7232   0.0000
    80 HBL1        27.3474   -19.5733     0.6813 H            1 CW7232   0.0000
    81 HBL2        26.3998   -18.5583     1.5406 H            1 CW7232   0.0000
    82 HBL3        25.9680   -20.1229     1.3609 H            1 CW7232   0.0000
    83 HBM1        27.3126   -18.1648    -1.3082 H            1 CW7232   0.0000
    84 HBM2        25.9075   -17.6859    -1.9886 H            1 CW7232   0.0000
    85 HBM3        26.3900   -17.0380    -0.5695 H            1 CW7232   0.0000
    86 HBN1        20.8871   -18.5998    -1.7609 H            1 CW7232   0.0000
    87 HBN2        20.2599   -19.8017    -0.8506 H            1 CW7232   0.0000
    88 HBN3        19.8881   -18.2467    -0.5183 H            1 CW7232   0.0000
    89 HBO1        19.1197   -21.6093     2.6797 H            1 CW7232   0.0000
    90 HBO2        19.0117   -19.9877     2.8388 H            1 CW7232   0.0000
    91 HBQ1        16.7783   -21.4142     5.1180 H            1 CW7232   0.0000
    92 HBQ2        16.8728   -20.5431     3.7399 H            1 CW7232   0.0000
    93 HBQ3        17.2254   -22.1375     3.7238 H            1 CW7232   0.0000
    94 HBR         21.0398   -18.9011     4.1512 H            1 CW7232   0.0000
@<TRIPOS>BOND
     1    1    2       1
     2    1   35       1
     3    2   35       1
     4    3    4       2
     5    4    5       1
     6    4   17       1
     7    5    6       1
     8    5    9       1
     9    6    7       1
    10    7    8       1
    11    8    9       1
    12    8   41       1
    13    8   44       1
    14    9   10       1
    15   10   11       1
    16   11   12       1
    17   11   15       1
    18   11   40       1
    19   12   13       1
    20   13   14       1
    21   14   15       2
    22   14   37       1
    23   15   16       1
    24   16   17       1
    25   16   19       1
    26   17   18       1
    27   19   20       1
    28   20   21       1
    29   20   25       1
    30   21   22       1
    31   21   36       1
    32   22   23       1
    33   22   31       1
    34   23   24       1
    35   23   29       1
    36   23   33       1
    37   24   25       1
    38   24   26       1
    39   26   27       1
    40   27   28       1
    41   29   30       1
    42   30   31       1
    43   30   32       1
    44   32   33       1
    45   32   34       1
    46   32   35       1
    47   37   38       1
    48   37   39       1
    49   41   42       1
    50   42   43       1
    51    1   45       1
    52    1   46       1
    53    3   47       1
    54    3   48       1
    55    5   49       1
    56    6   50       1
    57    6   51       1
    58    7   52       1
    59    7   53       1
    60    9   54       1
    61   10   55       1
    62   10   56       1
    63   12   57       1
    64   12   58       1
    65   13   59       1
    66   13   60       1
    67   16   61       1
    68   17   62       1
    69   18   63       1
    70   20   64       1
    71   21   65       1
    72   22   66       1
    73   24   67       1
    74   26   68       1
    75   26   69       1
    76   28   70       1
    77   28   71       1
    78   28   72       1
    79   30   73       1
    80   34   74       1
    81   34   75       1
    82   34   76       1
    83   35   77       1
    84   36   78       1
    85   37   79       1
    86   38   80       1
    87   38   81       1
    88   38   82       1
    89   39   83       1
    90   39   84       1
    91   39   85       1
    92   40   86       1
    93   40   87       1
    94   40   88       1
    95   41   89       1
    96   41   90       1
    97   43   91       1
    98   43   92       1
    99   43   93       1
   100   44   94       1
@<TRIPOS>SUBSTRUCTURE
     1 CW7232      1 GROUP             4 A     CW7     0 **** CW7 A 232
