@<TRIPOS>MOLECULE
4j8p_FMN_1_ligand
   50    52     1     0     0
SMALL
NO_CHARGES


@<TRIPOS>ATOM
     1 N1          24.7990     5.3970    16.4540 N.2          1 FMN201   0.0000
     2 C2          25.0040     6.3800    17.3890 C.2          1 FMN201   0.0000
     3 O2          24.4840     7.4960    17.2940 O.2          1 FMN201   0.0000
     4 N3          25.7560     6.1000    18.5370 N.pl3        1 FMN201   0.0000
     5 C4          26.3080     4.8720    18.8620 C.2          1 FMN201   0.0000
     6 O4          27.0080     4.7630    19.8710 O.2          1 FMN201   0.0000
     7 C4A         26.0090     3.8090    17.9040 C.2          1 FMN201   0.0000
     8 N5          26.3790     2.5790    18.2010 N.2          1 FMN201   0.0000
     9 C5A         26.0950     1.5740    17.2840 C.ar         1 FMN201   0.0000
    10 C6          26.5410     0.2740    17.5600 C.ar         1 FMN201   0.0000
    11 C7          26.3800    -0.7570    16.6420 C.ar         1 FMN201   0.0000
    12 C7M         26.9980    -2.1000    16.9280 C.3          1 FMN201   0.0000
    13 C8          25.7230    -0.4980    15.4220 C.ar         1 FMN201   0.0000
    14 C8M         25.5770    -1.5640    14.3670 C.3          1 FMN201   0.0000
    15 C9          25.2550     0.7840    15.1590 C.ar         1 FMN201   0.0000
    16 C9A         25.4380     1.8320    16.0640 C.ar         1 FMN201   0.0000
    17 N10         25.0190     3.1710    15.7970 N.pl3        1 FMN201   0.0000
    18 C10         25.2710     4.1740    16.6960 C.2          1 FMN201   0.0000
    19 C1'         24.3350     3.4620    14.5150 C.3          1 FMN201   0.0000
    20 C2'         25.3100     3.6790    13.3570 C.3          1 FMN201   0.0000
    21 O2'         26.4040     4.5230    13.7120 O.3          1 FMN201   0.0000
    22 C3'         24.6380     4.2790    12.1210 C.3          1 FMN201   0.0000
    23 O3'         23.4230     3.5730    11.8380 O.3          1 FMN201   0.0000
    24 C4'         25.5760     4.2970    10.9100 C.3          1 FMN201   0.0000
    25 O4'         25.1220     5.3080    10.0110 O.3          1 FMN201   0.0000
    26 C5'         25.5940     2.9490    10.2090 C.3          1 FMN201   0.0000
    27 O5'         26.5610     3.0780     9.1620 O.3          1 FMN201   0.0000
    28 P           26.8860     1.9800     8.0940 P.3          1 FMN201   0.0000
    29 O1P         27.3870     0.7090     8.6670 O.co2        1 FMN201   0.0000
    30 O2P         27.8890     2.6640     7.1980 O.co2        1 FMN201  -1.0000
    31 O3P         25.6040     1.7640     7.2810 O.co2        1 FMN201  -1.0000
    32 H1          25.9076     6.8525    19.1780 H            1 FMN201   0.0000
    33 H2          26.9844     0.0844    18.4360 H            1 FMN201   0.0000
    34 H7M1        26.7929    -2.7280    16.1773 H            1 FMN201   0.0000
    35 H7M2        27.9889    -1.9989    17.0167 H            1 FMN201   0.0000
    36 H7M3        26.6226    -2.4651    17.7799 H            1 FMN201   0.0000
    37 H8M1        25.0856    -1.1896    13.5806 H            1 FMN201   0.0000
    38 H8M2        26.4830    -1.8730    14.0777 H            1 FMN201   0.0000
    39 H8M3        25.0655    -2.3368    14.7426 H            1 FMN201   0.0000
    40 H9          24.7749     0.9606    14.2997 H            1 FMN201   0.0000
    41 H1'1        23.7841     4.2889    14.6277 H            1 FMN201   0.0000
    42 H1'2        23.7381     2.6920    14.2897 H            1 FMN201   0.0000
    43 H2'         25.6826     2.7873    13.0999 H            1 FMN201   0.0000
    44 H13         26.9121     4.1100    14.4678 H            1 FMN201   0.0000
    45 H3'         24.3976     5.2259    12.3343 H            1 FMN201   0.0000
    46 H15         22.9879     3.9691    11.0294 H            1 FMN201   0.0000
    47 H4'         26.5017     4.5207    11.2151 H            1 FMN201   0.0000
    48 H17         24.1881     5.1003     9.7199 H            1 FMN201   0.0000
    49 H5'1        24.6928     2.7401     9.8292 H            1 FMN201   0.0000
    50 H5'2        25.8627     2.2268    10.8463 H            1 FMN201   0.0000
@<TRIPOS>BOND
     1    1    2       1
     2    1   18       2
     3    2    3       2
     4    2    4       1
     5    4    5       1
     6    5    6       2
     7    5    7       1
     8    7    8       2
     9    7   18       1
    10    8    9       1
    11    9   10      ar
    12    9   16      ar
    13   10   11      ar
    14   11   12       1
    15   11   13      ar
    16   13   14       1
    17   13   15      ar
    18   15   16      ar
    19   16   17       1
    20   17   18       1
    21   17   19       1
    22   19   20       1
    23   20   21       1
    24   20   22       1
    25   22   23       1
    26   22   24       1
    27   24   25       1
    28   24   26       1
    29   26   27       1
    30   27   28       1
    31   28   29      ar
    32   28   30      ar
    33   28   31      ar
    34    4   32       1
    35   10   33       1
    36   12   34       1
    37   12   35       1
    38   12   36       1
    39   14   37       1
    40   14   38       1
    41   14   39       1
    42   15   40       1
    43   19   41       1
    44   19   42       1
    45   20   43       1
    46   21   44       1
    47   22   45       1
    48   23   46       1
    49   24   47       1
    50   25   48       1
    51   26   49       1
    52   26   50       1
@<TRIPOS>SUBSTRUCTURE
     1 FMN201      1 GROUP             4 A     FMN     0 **** FMN A 201
