@<TRIPOS>MOLECULE
1fxs_NAP_1_ligand
   73    77     1     0     0
SMALL
NO_CHARGES


@<TRIPOS>ATOM
     1 PA          31.3150    25.6500    13.3890 P.3          1 NAP350   0.0000
     2 O1A         31.5630    25.0160    12.0430 O.co2        1 NAP350   0.0000
     3 O2A         32.0850    25.1660    14.5620 O.co2        1 NAP350  -1.0000
     4 O5B         29.6840    25.5580    13.6500 O.3          1 NAP350   0.0000
     5 C5B         28.7500    25.3130    12.5660 C.3          1 NAP350   0.0000
     6 C4B         27.8420    24.2050    13.0360 C.3          1 NAP350   0.0000
     7 O4B         26.7180    24.1600    12.1280 O.3          1 NAP350   0.0000
     8 C3B         28.4980    22.8480    12.9940 C.3          1 NAP350   0.0000
     9 O3B         28.2800    22.1230    14.2310 O.3          1 NAP350   0.0000
    10 C2B         27.8230    22.1650    11.8640 C.3          1 NAP350   0.0000
    11 O2B         27.6980    20.7660    12.1110 O.3          1 NAP350   0.0000
    12 C1B         26.4590    22.7870    11.8090 C.3          1 NAP350   0.0000
    13 N9A         25.8660    22.6540    10.4390 N.pl3        1 NAP350   0.0000
    14 C8A         26.3420    23.1650     9.2360 C.2          1 NAP350   0.0000
    15 N7A         25.5800    22.8470     8.2230 N.2          1 NAP350   0.0000
    16 C5A         24.5480    22.0850     8.7710 C.ar         1 NAP350   0.0000
    17 C6A         23.4190    21.4530     8.1940 C.ar         1 NAP350   0.0000
    18 N6A         23.1800    21.5070     6.8910 N.pl3        1 NAP350   0.0000
    19 N1A         22.5760    20.7690     9.0140 N.ar         1 NAP350   0.0000
    20 C2A         22.8310    20.7180    10.3300 C.ar         1 NAP350   0.0000
    21 N3A         23.8650    21.2800    10.9540 N.ar         1 NAP350   0.0000
    22 C4A         24.6960    21.9650    10.1070 C.ar         1 NAP350   0.0000
    23 O3          31.4310    27.2480    13.2570 O.3          1 NAP350   0.0000
    24 PN          31.4680    28.5040    14.2720 P.3          1 NAP350   0.0000
    25 O1N         32.9400    28.9210    14.3810 O.co2        1 NAP350   0.0000
    26 O2N         30.7910    28.0140    15.5570 O.co2        1 NAP350  -1.0000
    27 O5D         30.6420    29.6960    13.5690 O.3          1 NAP350   0.0000
    28 C5D         29.1940    29.7970    13.6210 C.3          1 NAP350   0.0000
    29 C4D         28.8170    31.2520    13.3260 C.3          1 NAP350   0.0000
    30 O4D         29.4680    32.0580    14.3550 O.3          1 NAP350   0.0000
    31 C3D         29.4330    31.7770    12.0220 C.3          1 NAP350   0.0000
    32 O3D         28.6580    31.4710    10.8350 O.3          1 NAP350   0.0000
    33 C2D         29.5700    33.2660    12.2720 C.3          1 NAP350   0.0000
    34 O2D         28.3630    33.9160    11.9540 O.3          1 NAP350   0.0000
    35 C1D         29.9080    33.3150    13.7980 C.3          1 NAP350   0.0000
    36 N1N         31.3590    33.4790    13.9210 N.ar         1 NAP350   1.0000
    37 C2N         31.7990    34.7430    13.5730 C.ar         1 NAP350   0.0000
    38 C3N         33.1890    35.0070    13.6530 C.ar         1 NAP350   0.0000
    39 C7N         33.6560    36.3350    13.2820 C.2          1 NAP350   0.0000
    40 O7N         32.7530    37.2600    12.8960 O.2          1 NAP350   0.0000
    41 N7N         34.8630    36.6820    13.3020 N.am         1 NAP350   0.0000
    42 C4N         34.0700    33.9990    14.0670 C.ar         1 NAP350   0.0000
    43 C5N         33.6260    32.7520    14.4110 C.ar         1 NAP350   0.0000
    44 C6N         32.2630    32.4850    14.3340 C.ar         1 NAP350   0.0000
    45 P2B         28.7130    19.6740    11.4510 P.3          1 NAP350   0.0000
    46 O1X         30.1200    20.2720    11.5380 O.co2        1 NAP350   0.0000
    47 O2X         28.4350    18.4810    12.3380 O.co2        1 NAP350  -1.0000
    48 O3X         28.2350    19.5530    10.0220 O.co2        1 NAP350  -1.0000
    49 H5B1        29.2415    25.0323    11.7416 H            1 NAP350   0.0000
    50 H5B2        28.2189    26.1380    12.3728 H            1 NAP350   0.0000
    51 H4B         27.5218    24.3988    13.9633 H            1 NAP350   0.0000
    52 H3B         29.4769    22.9395    12.8114 H            1 NAP350   0.0000
    53 H5          28.7245    21.2289    14.1761 H            1 NAP350   0.0000
    54 H2B         28.3174    22.3276    11.0101 H            1 NAP350   0.0000
    55 H1B         25.8575    22.3750    12.4934 H            1 NAP350   0.0000
    56 H8A         27.1739    23.7141     9.1553 H            1 NAP350   0.0000
    57 H6A1        22.3750    21.0514     6.5110 H            1 NAP350   0.0000
    58 H6A2        23.8047    22.0034     6.2882 H            1 NAP350   0.0000
    59 H2A         22.1829    20.2094    10.8968 H            1 NAP350   0.0000
    60 H5D1        28.8671    29.5382    14.5299 H            1 NAP350   0.0000
    61 H5D2        28.7858    29.1939    12.9357 H            1 NAP350   0.0000
    62 H4D         27.8253    31.3801    13.3371 H            1 NAP350   0.0000
    63 H3D         30.3467    31.3841    11.9183 H            1 NAP350   0.0000
    64 H16         29.1202    31.8431    10.0301 H            1 NAP350   0.0000
    65 H2D         30.3236    33.6437    11.7340 H            1 NAP350   0.0000
    66 H18         28.4589    34.8973    12.1207 H            1 NAP350   0.0000
    67 H1D         29.4320    34.0771    14.2368 H            1 NAP350   0.0000
    68 H2N         31.1564    35.4486    13.2743 H            1 NAP350   0.0000
    69 H7N1        35.1208    37.6106    13.0352 H            1 NAP350   0.0000
    70 H7N2        35.5662    36.0296    13.5848 H            1 NAP350   0.0000
    71 H4N         35.0492    34.1967    14.1121 H            1 NAP350   0.0000
    72 H5N         34.2680    32.0467    14.7117 H            1 NAP350   0.0000
    73 H6N         31.9226    31.5761    14.5751 H            1 NAP350   0.0000
@<TRIPOS>BOND
     1    1    2      ar
     2    1    3      ar
     3    1    4       1
     4    1   23       1
     5    4    5       1
     6    5    6       1
     7    6    7       1
     8    6    8       1
     9    7   12       1
    10    8    9       1
    11    8   10       1
    12   10   11       1
    13   10   12       1
    14   11   45       1
    15   12   13       1
    16   13   14       1
    17   13   22       1
    18   14   15       2
    19   15   16       1
    20   16   17      ar
    21   16   22      ar
    22   17   18       1
    23   17   19      ar
    24   19   20      ar
    25   20   21      ar
    26   21   22      ar
    27   23   24       1
    28   24   25      ar
    29   24   26      ar
    30   24   27       1
    31   27   28       1
    32   28   29       1
    33   29   30       1
    34   29   31       1
    35   30   35       1
    36   31   32       1
    37   31   33       1
    38   33   34       1
    39   33   35       1
    40   35   36       1
    41   36   37      ar
    42   36   44      ar
    43   37   38      ar
    44   38   39       1
    45   38   42      ar
    46   39   40       2
    47   39   41      am
    48   42   43      ar
    49   43   44      ar
    50   45   46      ar
    51   45   47      ar
    52   45   48      ar
    53   43   72       1
    54    5   49       1
    55    5   50       1
    56    6   51       1
    57    8   52       1
    58    9   53       1
    59   10   54       1
    60   12   55       1
    61   14   56       1
    62   18   57       1
    63   18   58       1
    64   20   59       1
    65   44   73       1
    66   28   60       1
    67   28   61       1
    68   29   62       1
    69   31   63       1
    70   32   64       1
    71   33   65       1
    72   34   66       1
    73   35   67       1
    74   37   68       1
    75   41   69       1
    76   41   70       1
    77   42   71       1
@<TRIPOS>SUBSTRUCTURE
     1 NAP350      1 GROUP             4 A     NAP     0 **** NAP A 350
