@<TRIPOS>MOLECULE
1m2x_MCO_3_ligand
   27    27     1     0     0
SMALL
NO_CHARGES


@<TRIPOS>ATOM
     1 O2          -5.2530    77.0550     7.0430 O.co2        1 MCO813   0.0000
     2 C9          -5.3070    76.0020     7.7180 C.2          1 MCO813   0.0000
     3 O3          -5.7660    75.9000     8.8730 O.co2        1 MCO813  -1.0000
     4 C8          -4.7570    74.7130     7.0610 C.3          1 MCO813   0.0000
     5 C7          -3.4240    75.0040     6.3670 C.3          1 MCO813   0.0000
     6 C6          -2.3720    74.8810     7.4760 C.3          1 MCO813   0.0000
     7 C5          -2.8910    73.7610     8.3850 C.3          1 MCO813   0.0000
     8 N           -4.3490    73.7630     8.1210 N.am         1 MCO813   0.0000
     9 C4          -5.2040    72.8980     8.7100 C.2          1 MCO813   0.0000
    10 O1          -6.3900    72.8910     8.3760 O.2          1 MCO813   0.0000
    11 C2          -4.6980    71.9350     9.7970 C.3          1 MCO813   0.0000
    12 C3          -4.2990    70.6080     9.1420 C.3          1 MCO813   0.0000
    13 C1          -5.7870    71.7160    10.8540 C.3          1 MCO813   0.0000
    14 S           -5.1710    70.8060    12.3150 S.3          1 MCO813  -1.0000
    15 H1          -5.4201    74.3052     6.4333 H            1 MCO813   0.0000
    16 H2          -3.4220    75.9260     5.9799 H            1 MCO813   0.0000
    17 H3          -3.2513    74.3376     5.6417 H            1 MCO813   0.0000
    18 H4          -2.2934    75.7389     7.9838 H            1 MCO813   0.0000
    19 H5          -1.4813    74.6384     7.0914 H            1 MCO813   0.0000
    20 H6          -2.6998    73.9609     9.3460 H            1 MCO813   0.0000
    21 H7          -2.4829    72.8816     8.1399 H            1 MCO813   0.0000
    22 H8          -3.8939    72.3350    10.2369 H            1 MCO813   0.0000
    23 H9          -3.9687    69.9762     9.8432 H            1 MCO813   0.0000
    24 H10         -5.0936    70.2107     8.6829 H            1 MCO813   0.0000
    25 H11         -3.5744    70.7713     8.4725 H            1 MCO813   0.0000
    26 H12         -6.5335    71.1935    10.4420 H            1 MCO813   0.0000
    27 H13         -6.1287    72.6073    11.1519 H            1 MCO813   0.0000
@<TRIPOS>BOND
     1    1    2      ar
     2    2    3      ar
     3    2    4       1
     4    4    5       1
     5    4    8       1
     6    5    6       1
     7    6    7       1
     8    7    8       1
     9    8    9      am
    10    9   10       2
    11    9   11       1
    12   11   12       1
    13   11   13       1
    14   13   14       1
    15   13   27       1
    16    4   15       1
    17    5   16       1
    18    5   17       1
    19    6   18       1
    20    6   19       1
    21    7   20       1
    22    7   21       1
    23   11   22       1
    24   12   23       1
    25   12   24       1
    26   12   25       1
    27   13   26       1
@<TRIPOS>SUBSTRUCTURE
     1 MCO813      1 GROUP             4 C     MCO     0 **** MCO C 813
