@<TRIPOS>MOLECULE
3d45_GDP_1_ligand
   40    42     1     0     0
SMALL
NO_CHARGES


@<TRIPOS>ATOM
     1 PB           5.0270    14.1980    23.0580 P.3          1 GDP652   0.0000
     2 O1B          5.2530    12.8460    22.4390 O.co2        1 GDP652   0.0000
     3 O2B          4.5510    14.0200    24.4770 O.co2        1 GDP652  -1.0000
     4 O3B          6.3300    14.9560    22.9390 O.co2        1 GDP652  -1.0000
     5 O3A          3.8470    14.9920    22.3250 O.3          1 GDP652   0.0000
     6 PA           4.0730    16.4150    21.6160 P.3          1 GDP652   0.0000
     7 O1A          2.6990    17.0280    21.3490 O.co2        1 GDP652   0.0000
     8 O2A          4.9940    17.3530    22.3660 O.co2        1 GDP652  -1.0000
     9 O5'          4.7030    15.9030    20.2420 O.3          1 GDP652   0.0000
    10 C5'          3.9660    14.9080    19.5410 C.3          1 GDP652   0.0000
    11 C4'          4.1750    15.0500    18.0520 C.3          1 GDP652   0.0000
    12 O4'          5.4670    14.5580    17.7140 O.3          1 GDP652   0.0000
    13 C3'          3.1890    14.1810    17.3190 C.3          1 GDP652   0.0000
    14 O3'          2.2380    15.0640    16.7370 O.3          1 GDP652   0.0000
    15 C2'          3.9760    13.4110    16.2800 C.3          1 GDP652   0.0000
    16 O2'          3.6280    13.8100    14.9600 O.3          1 GDP652   0.0000
    17 C1'          5.4200    13.7980    16.5110 C.3          1 GDP652   0.0000
    18 N9           6.3060    12.6070    16.6020 N.pl3        1 GDP652   0.0000
    19 C8           5.9470    11.3190    16.8190 C.2          1 GDP652   0.0000
    20 N7           7.0240    10.4870    16.8060 N.2          1 GDP652   0.0000
    21 C5           8.1020    11.2530    16.5860 C.2          1 GDP652   0.0000
    22 C6           9.5580    11.0340    16.4550 C.2          1 GDP652   0.0000
    23 O6          10.0450     9.8950    16.5590 O.2          1 GDP652   0.0000
    24 N1          10.3550    12.0720    16.2200 N.2          1 GDP652   0.0000
    25 C2           9.8620    13.3080    16.1110 C.2          1 GDP652   0.0000
    26 N2          10.7430    14.3090    15.8810 N.pl3        1 GDP652   0.0000
    27 N3           8.5390    13.5980    16.2130 N.pl3        1 GDP652   0.0000
    28 C4           7.6300    12.6350    16.4490 C.2          1 GDP652   0.0000
    29 H5'1         2.9932    15.0110    19.7486 H            1 GDP652   0.0000
    30 H5'2         4.2749    14.0026    19.8323 H            1 GDP652   0.0000
    31 H4'          4.0780    16.0052    17.7725 H            1 GDP652   0.0000
    32 H3'          2.7391    13.5520    17.9530 H            1 GDP652   0.0000
    33 H5           1.4862    15.2144    17.3790 H            1 GDP652   0.0000
    34 H2'          3.8497    12.4260    16.3976 H            1 GDP652   0.0000
    35 H7           2.9285    14.5234    15.0009 H            1 GDP652   0.0000
    36 H1'          5.7267    14.3728    15.7524 H            1 GDP652   0.0000
    37 H9           5.0059    11.0165    16.9702 H            1 GDP652   0.0000
    38 H10         10.4180    15.2506    15.7924 H            1 GDP652   0.0000
    39 H11         11.7190    14.1072    15.7997 H            1 GDP652   0.0000
    40 H12          8.2350    14.5452    16.1107 H            1 GDP652   0.0000
@<TRIPOS>BOND
     1    1    2      ar
     2    1    3      ar
     3    1    4      ar
     4    1    5       1
     5    5    6       1
     6    6    7      ar
     7    6    8      ar
     8    6    9       1
     9    9   10       1
    10   10   11       1
    11   11   12       1
    12   11   13       1
    13   12   17       1
    14   13   14       1
    15   13   15       1
    16   15   16       1
    17   15   17       1
    18   17   18       1
    19   18   19       1
    20   18   28       1
    21   19   20       2
    22   20   21       1
    23   21   22       1
    24   21   28       2
    25   22   23       2
    26   22   24       1
    27   24   25       2
    28   25   26       1
    29   25   27       1
    30   27   28       1
    31   26   39       1
    32   26   38       1
    33   19   37       1
    34   10   29       1
    35   10   30       1
    36   11   31       1
    37   13   32       1
    38   14   33       1
    39   15   34       1
    40   16   35       1
    41   17   36       1
    42   27   40       1
@<TRIPOS>SUBSTRUCTURE
     1 GDP652      1 GROUP             4 A     GDP     0 **** GDP A 652
