@<TRIPOS>MOLECULE
3lsi_FAD_1_ligand
   84    89     1     0     0
SMALL
NO_CHARGES


@<TRIPOS>ATOM
     1 PA          -0.0070    15.3510   -29.8200 P.3          1 FAD801   0.0000
     2 O1A          0.8000    15.2950   -28.5620 O.co2        1 FAD801   0.0000
     3 O2A         -1.1490    14.3770   -29.9860 O.co2        1 FAD801  -1.0000
     4 O5B          0.9880    15.0200   -31.0600 O.3          1 FAD801   0.0000
     5 C5B          2.2310    15.6520   -31.2380 C.3          1 FAD801   0.0000
     6 C4B          3.2460    14.6700   -31.7960 C.3          1 FAD801   0.0000
     7 O4B          4.4820    15.2300   -32.2730 O.3          1 FAD801   0.0000
     8 C3B          3.4220    13.2040   -31.4420 C.3          1 FAD801   0.0000
     9 O3B          2.9440    12.2010   -32.2870 O.3          1 FAD801   0.0000
    10 C2B          4.9000    13.1400   -31.1630 C.3          1 FAD801   0.0000
    11 O2B          5.4950    11.9040   -31.2280 O.3          1 FAD801   0.0000
    12 C1B          5.4960    14.3230   -31.8880 C.3          1 FAD801   0.0000
    13 N9A          6.8030    14.9320   -31.6590 N.pl3        1 FAD801   0.0000
    14 C8A          7.0400    15.4210   -30.4280 C.2          1 FAD801   0.0000
    15 N7A          8.2680    15.9590   -30.5080 N.2          1 FAD801   0.0000
    16 C5A          8.7520    15.7990   -31.7800 C.ar         1 FAD801   0.0000
    17 C6A          9.9230    16.1790   -32.3550 C.ar         1 FAD801   0.0000
    18 N6A         10.8560    16.8460   -31.6740 N.pl3        1 FAD801   0.0000
    19 N1A         10.1730    15.8270   -33.6330 N.ar         1 FAD801   0.0000
    20 C2A          9.2270    15.1300   -34.3530 C.ar         1 FAD801   0.0000
    21 N3A          8.0250    14.8120   -33.8090 N.ar         1 FAD801   0.0000
    22 C4A          7.8000    15.1250   -32.5320 C.ar         1 FAD801   0.0000
    23 N1          -8.1480    15.8620   -25.2130 N.2          1 FAD801   0.0000
    24 C2          -9.3980    16.2950   -25.4600 C.2          1 FAD801   0.0000
    25 O2          -9.6290    17.3180   -26.1310 O.2          1 FAD801   0.0000
    26 N3         -10.4050    15.4610   -25.1520 N.pl3        1 FAD801   0.0000
    27 C4         -10.2890    14.1880   -24.6670 C.2          1 FAD801   0.0000
    28 O4         -11.1830    13.5850   -24.0540 O.2          1 FAD801   0.0000
    29 C4X         -8.9220    13.7950   -24.2440 C.2          1 FAD801   0.0000
    30 N5          -8.6670    12.6950   -23.5050 N.2          1 FAD801   0.0000
    31 C5X         -7.3640    12.3870   -23.2150 C.ar         1 FAD801   0.0000
    32 C6          -7.0850    11.0930   -22.7080 C.ar         1 FAD801   0.0000
    33 C7          -5.7500    10.7540   -22.4900 C.ar         1 FAD801   0.0000
    34 C7M         -5.5250     9.3100   -22.0620 C.3          1 FAD801   0.0000
    35 C8          -4.6990    11.4410   -23.1170 C.ar         1 FAD801   0.0000
    36 C8M         -3.3020    10.7640   -23.2830 C.3          1 FAD801   0.0000
    37 C9          -4.9690    12.6630   -23.7420 C.ar         1 FAD801   0.0000
    38 C9A         -6.3010    13.1420   -23.7940 C.ar         1 FAD801   0.0000
    39 N10         -6.5830    14.3590   -24.3680 N.pl3        1 FAD801   0.0000
    40 C10         -7.9130    14.7920   -24.4030 C.2          1 FAD801   0.0000
    41 C1'         -5.5250    15.2470   -24.9600 C.3          1 FAD801   0.0000
    42 C2'         -5.3540    15.2620   -26.4760 C.3          1 FAD801   0.0000
    43 O2'         -4.8670    13.9630   -26.7280 O.3          1 FAD801   0.0000
    44 C3'         -4.3220    16.3070   -26.9380 C.3          1 FAD801   0.0000
    45 O3'         -4.6250    17.6590   -26.6120 O.3          1 FAD801   0.0000
    46 C4'         -4.1380    16.2510   -28.4440 C.3          1 FAD801   0.0000
    47 O4'         -3.7810    14.8760   -28.8260 O.3          1 FAD801   0.0000
    48 C5'         -3.1010    17.3270   -28.8640 C.3          1 FAD801   0.0000
    49 O5'         -2.7620    17.0710   -30.2220 O.3          1 FAD801   0.0000
    50 P           -1.4250    17.6100   -30.9200 P.3          1 FAD801   0.0000
    51 O1P         -1.4870    17.0830   -32.3370 O.co2        1 FAD801   0.0000
    52 O2P         -1.1560    19.0710   -30.6270 O.co2        1 FAD801  -1.0000
    53 O3P         -0.2760    16.8900   -30.0590 O.3          1 FAD801   0.0000
    54 H5B1         2.5551    15.9966   -30.3570 H            1 FAD801   0.0000
    55 H5B2         2.1249    16.4149   -31.8757 H            1 FAD801   0.0000
    56 H4B          2.8150    14.5346   -32.6881 H            1 FAD801   0.0000
    57 H3B          2.9648    13.0711   -30.5626 H            1 FAD801   0.0000
    58 H5           3.3850    12.2801   -33.1810 H            1 FAD801   0.0000
    59 H2B          4.9723    13.3899   -30.1974 H            1 FAD801   0.0000
    60 H7           5.8181    11.7382   -32.1597 H            1 FAD801   0.0000
    61 H1B          5.6723    13.8949   -32.7744 H            1 FAD801   0.0000
    62 H8A          6.4364    15.3906   -29.6313 H            1 FAD801   0.0000
    63 H6A1        11.7084    17.1127   -32.1237 H            1 FAD801   0.0000
    64 H6A2        10.7030    17.0794   -30.7137 H            1 FAD801   0.0000
    65 H2A          9.4297    14.8538   -35.2925 H            1 FAD801   0.0000
    66 H13        -11.3331    15.8061   -25.2915 H            1 FAD801   0.0000
    67 H14         -7.8211    10.4447   -22.5131 H            1 FAD801   0.0000
    68 H7M1        -4.5470     9.1508   -21.9274 H            1 FAD801   0.0000
    69 H7M2        -6.0119     9.1363   -21.2060 H            1 FAD801   0.0000
    70 H7M3        -5.8684     8.6947   -22.7715 H            1 FAD801   0.0000
    71 H8M1        -2.6796    11.3937   -23.7478 H            1 FAD801   0.0000
    72 H8M2        -2.9333    10.5353   -22.3820 H            1 FAD801   0.0000
    73 H8M3        -3.3984     9.9294   -23.8254 H            1 FAD801   0.0000
    74 H21         -4.2266    13.1949   -24.1494 H            1 FAD801   0.0000
    75 H1'1        -4.6495    14.9662   -24.5667 H            1 FAD801   0.0000
    76 H1'2        -5.7327    16.1833   -24.6768 H            1 FAD801   0.0000
    77 H2'         -6.2329    15.4060   -26.9309 H            1 FAD801   0.0000
    78 H25         -4.2761    13.9792   -27.5346 H            1 FAD801   0.0000
    79 H3'         -3.4454    16.0793   -26.5141 H            1 FAD801   0.0000
    80 H27         -5.4938    17.9171   -27.0345 H            1 FAD801   0.0000
    81 H4'         -5.0125    16.4766   -28.8734 H            1 FAD801   0.0000
    82 H29         -2.8874    14.8761   -29.2749 H            1 FAD801   0.0000
    83 H5'1        -2.2859    17.2614   -28.2884 H            1 FAD801   0.0000
    84 H5'2        -3.4988    18.2402   -28.7757 H            1 FAD801   0.0000
@<TRIPOS>BOND
     1    1    2      ar
     2    1    3      ar
     3    1    4       1
     4    1   53       1
     5    4    5       1
     6    5    6       1
     7    6    7       1
     8    6    8       1
     9    7   12       1
    10    8    9       1
    11    8   10       1
    12   10   11       1
    13   10   12       1
    14   12   13       1
    15   13   14       1
    16   13   22       1
    17   14   15       2
    18   15   16       1
    19   16   17      ar
    20   16   22      ar
    21   17   18       1
    22   17   19      ar
    23   19   20      ar
    24   20   21      ar
    25   21   22      ar
    26   23   24       1
    27   23   40       2
    28   24   25       2
    29   24   26       1
    30   26   27       1
    31   27   28       2
    32   27   29       1
    33   29   30       2
    34   29   40       1
    35   30   31       1
    36   31   32      ar
    37   31   38      ar
    38   32   33      ar
    39   33   34       1
    40   33   35      ar
    41   35   36       1
    42   35   37      ar
    43   37   38      ar
    44   38   39       1
    45   39   40       1
    46   39   41       1
    47   41   42       1
    48   42   43       1
    49   42   44       1
    50   44   45       1
    51   44   46       1
    52   46   47       1
    53   46   48       1
    54   48   49       1
    55   49   50       1
    56   50   51      ar
    57   50   52      ar
    58   50   53       1
    59   48   84       1
    60    5   54       1
    61    5   55       1
    62    6   56       1
    63    8   57       1
    64    9   58       1
    65   10   59       1
    66   11   60       1
    67   12   61       1
    68   14   62       1
    69   18   63       1
    70   18   64       1
    71   20   65       1
    72   26   66       1
    73   32   67       1
    74   34   68       1
    75   34   69       1
    76   34   70       1
    77   36   71       1
    78   36   72       1
    79   36   73       1
    80   37   74       1
    81   41   75       1
    82   41   76       1
    83   42   77       1
    84   43   78       1
    85   44   79       1
    86   45   80       1
    87   46   81       1
    88   47   82       1
    89   48   83       1
@<TRIPOS>SUBSTRUCTURE
     1 FAD801      1 GROUP             4 A     FAD     0 **** FAD A 801
