@<TRIPOS>MOLECULE
4hp8_NAP_2_ligand
   73    77     1     0     0
SMALL
NO_CHARGES


@<TRIPOS>ATOM
     1 PA           6.3250   -20.9210    -4.8970 P.3          1 NAP301   0.0000
     2 O1A          5.1840   -20.8170    -5.7790 O.co2        1 NAP301   0.0000
     3 O2A          7.5040   -21.6760    -5.3550 O.co2        1 NAP301  -1.0000
     4 O5B          5.8550   -21.4170    -3.4840 O.3          1 NAP301   0.0000
     5 C5B          4.6380   -20.9760    -2.9010 C.3          1 NAP301   0.0000
     6 C4B          4.4990   -21.8140    -1.6310 C.3          1 NAP301   0.0000
     7 O4B          3.1960   -21.5950    -1.1110 O.3          1 NAP301   0.0000
     8 C3B          4.5630   -23.3190    -1.9070 C.3          1 NAP301   0.0000
     9 O3B          5.1760   -23.8720    -0.7640 O.3          1 NAP301   0.0000
    10 C2B          3.1160   -23.6820    -1.9870 C.3          1 NAP301   0.0000
    11 O2B          2.8220   -25.0820    -1.8160 O.3          1 NAP301   0.0000
    12 C1B          2.5210   -22.8170    -0.8640 C.3          1 NAP301   0.0000
    13 N9A          1.0950   -22.7470    -1.0270 N.pl3        1 NAP301   0.0000
    14 C8A          0.3990   -22.3350    -2.1190 C.2          1 NAP301   0.0000
    15 N7A         -0.9150   -22.5600    -1.9590 N.2          1 NAP301   0.0000
    16 C5A         -1.0530   -23.1870    -0.7300 C.ar         1 NAP301   0.0000
    17 C6A         -2.1570   -23.6670    -0.0200 C.ar         1 NAP301   0.0000
    18 N6A         -3.4110   -23.6440    -0.5010 N.pl3        1 NAP301   0.0000
    19 N1A         -1.9000   -24.2250     1.1920 N.ar         1 NAP301   0.0000
    20 C2A         -0.6520   -24.3200     1.7250 C.ar         1 NAP301   0.0000
    21 N3A          0.4440   -23.8430     1.0620 N.ar         1 NAP301   0.0000
    22 C4A          0.2090   -23.2990    -0.1510 C.ar         1 NAP301   0.0000
    23 O3           6.7710   -19.4070    -4.6460 O.3          1 NAP301   0.0000
    24 PN           8.0290   -18.6340    -4.1000 P.3          1 NAP301   0.0000
    25 O1N          8.5810   -17.9340    -5.2700 O.co2        1 NAP301   0.0000
    26 O2N          8.8290   -19.4480    -3.2130 O.co2        1 NAP301  -1.0000
    27 O5D          7.2790   -17.4960    -3.2940 O.3          1 NAP301   0.0000
    28 C5D          7.0250   -17.5610    -1.8510 C.3          1 NAP301   0.0000
    29 C4D          6.2980   -16.2970    -1.4410 C.3          1 NAP301   0.0000
    30 O4D          7.0470   -15.1440    -1.8500 O.3          1 NAP301   0.0000
    31 C3D          4.9330   -16.1630    -2.0540 C.3          1 NAP301   0.0000
    32 O3D          4.0760   -15.4480    -1.1510 O.3          1 NAP301   0.0000
    33 C2D          5.2290   -15.2740    -3.2300 C.3          1 NAP301   0.0000
    34 O2D          4.0990   -14.6290    -3.7810 O.3          1 NAP301   0.0000
    35 C1D          6.2520   -14.3340    -2.6390 C.3          1 NAP301   0.0000
    36 N1N          7.0910   -13.6350    -3.6090 N.ar         1 NAP301   1.0000
    37 C2N          7.9660   -14.3450    -4.4070 C.ar         1 NAP301   0.0000
    38 C3N          8.7670   -13.6340    -5.2850 C.ar         1 NAP301   0.0000
    39 C7N          9.8380   -14.3270    -6.0410 C.2          1 NAP301   0.0000
    40 O7N         10.5250   -13.5570    -6.9250 O.2          1 NAP301   0.0000
    41 N7N         10.1960   -15.6030    -5.8400 N.am         1 NAP301   0.0000
    42 C4N          8.7010   -12.2120    -5.3830 C.ar         1 NAP301   0.0000
    43 C5N          7.8840   -11.5510    -4.4080 C.ar         1 NAP301   0.0000
    44 C6N          7.0980   -12.2520    -3.5080 C.ar         1 NAP301   0.0000
    45 P2B          2.8150   -26.1840    -3.0080 P.3          1 NAP301   0.0000
    46 O1X          4.2130   -26.3180    -3.3530 O.co2        1 NAP301   0.0000
    47 O2X          2.0940   -27.3660    -2.4080 O.co2        1 NAP301  -1.0000
    48 O3X          2.0560   -25.5770    -4.1360 O.co2        1 NAP301  -1.0000
    49 H5B1         3.8695   -21.1405    -3.5193 H            1 NAP301   0.0000
    50 H5B2         4.6846   -20.0021    -2.6789 H            1 NAP301   0.0000
    51 H4B          5.1925   -21.5511    -0.9603 H            1 NAP301   0.0000
    52 H3B          5.0586   -23.5332    -2.7487 H            1 NAP301   0.0000
    53 H5           5.2525   -24.8631    -0.8733 H            1 NAP301   0.0000
    54 H2B          2.7496   -23.3754    -2.8655 H            1 NAP301   0.0000
    55 H1B          2.7610   -23.1831     0.0351 H            1 NAP301   0.0000
    56 H8A          0.8096   -21.9206    -2.9312 H            1 NAP301   0.0000
    57 H6A1        -4.1647   -24.0012     0.0506 H            1 NAP301   0.0000
    58 H6A2        -3.5908   -23.2697    -1.4107 H            1 NAP301   0.0000
    59 H2A         -0.5339   -24.7480     2.6210 H            1 NAP301   0.0000
    60 H5D1         7.8921   -17.6281    -1.3573 H            1 NAP301   0.0000
    61 H5D2         6.4600   -18.3593    -1.6424 H            1 NAP301   0.0000
    62 H4D          6.2069   -16.2859    -0.4452 H            1 NAP301   0.0000
    63 H3D          4.5489   -17.0446    -2.3283 H            1 NAP301   0.0000
    64 H16          4.0080   -15.9495    -0.2885 H            1 NAP301   0.0000
    65 H2D          5.6679   -15.8199    -3.9437 H            1 NAP301   0.0000
    66 H18          3.4212   -14.4726    -3.0626 H            1 NAP301   0.0000
    67 H1D          5.7880   -13.6632    -2.0605 H            1 NAP301   0.0000
    68 H2N          8.0197   -15.3421    -4.3526 H            1 NAP301   0.0000
    69 H7N1        10.9285   -16.0088    -6.3866 H            1 NAP301   0.0000
    70 H7N2         9.7306   -16.1491    -5.1434 H            1 NAP301   0.0000
    71 H4N          9.1954   -11.7064    -6.0900 H            1 NAP301   0.0000
    72 H5N          7.8814   -10.5515    -4.3765 H            1 NAP301   0.0000
    73 H6N          6.5568   -11.7791    -2.8127 H            1 NAP301   0.0000
@<TRIPOS>BOND
     1    1    2      ar
     2    1    3      ar
     3    1    4       1
     4    1   23       1
     5    4    5       1
     6    5    6       1
     7    6    7       1
     8    6    8       1
     9    7   12       1
    10    8    9       1
    11    8   10       1
    12   10   11       1
    13   10   12       1
    14   11   45       1
    15   12   13       1
    16   13   14       1
    17   13   22       1
    18   14   15       2
    19   15   16       1
    20   16   17      ar
    21   16   22      ar
    22   17   18       1
    23   17   19      ar
    24   19   20      ar
    25   20   21      ar
    26   21   22      ar
    27   23   24       1
    28   24   25      ar
    29   24   26      ar
    30   24   27       1
    31   27   28       1
    32   28   29       1
    33   29   30       1
    34   29   31       1
    35   30   35       1
    36   31   32       1
    37   31   33       1
    38   33   34       1
    39   33   35       1
    40   35   36       1
    41   36   37      ar
    42   36   44      ar
    43   37   38      ar
    44   38   39       1
    45   38   42      ar
    46   39   40       2
    47   39   41      am
    48   42   43      ar
    49   43   44      ar
    50   45   46      ar
    51   45   47      ar
    52   45   48      ar
    53   43   72       1
    54    5   49       1
    55    5   50       1
    56    6   51       1
    57    8   52       1
    58    9   53       1
    59   10   54       1
    60   12   55       1
    61   14   56       1
    62   18   57       1
    63   18   58       1
    64   20   59       1
    65   44   73       1
    66   28   60       1
    67   28   61       1
    68   29   62       1
    69   31   63       1
    70   32   64       1
    71   33   65       1
    72   34   66       1
    73   35   67       1
    74   37   68       1
    75   41   69       1
    76   41   70       1
    77   42   71       1
@<TRIPOS>SUBSTRUCTURE
     1 NAP301      1 GROUP             4 B     NAP     0 **** NAP B 301
