@<TRIPOS>MOLECULE
1ffi_2NC_1_ligand
  120   119     1     0     0
SMALL
NO_CHARGES


@<TRIPOS>ATOM
     1 C           23.3570    24.5410    19.6540 C.2          1 2NC300   0.0000
     2 O           23.0060    25.0630    20.7120 O.2          1 2NC300   0.0000
     3 CH3         23.8740    23.1160    19.5480 C.3          1 2NC300   0.0000
     4 N           23.3330    25.1710    18.4840 N.am         1 2NC300   0.0000
     5 CA          22.8750    26.5460    18.3550 C.3          1 2NC300   0.0000
     6 C1          21.4670    26.6500    17.7630 C.2          1 2NC300   0.0000
     7 O1          20.7930    27.6670    17.9140 O.2          1 2NC300   0.0000
     8 CB          23.8690    27.3770    17.5210 C.3          1 2NC300   0.0000
     9 OG1         24.0270    26.8000    16.2150 O.3          1 2NC300   0.0000
    10 CG2         25.2310    27.4170    18.2280 C.3          1 2NC300   0.0000
    11 N1          21.0240    25.5930    17.0930 N.am         1 2NC300   0.0000
    12 CA1         19.6960    25.5790    16.4950 C.3          1 2NC300   0.0000
    13 C2          18.9270    24.4540    17.1820 C.2          1 2NC300   0.0000
    14 O2          19.0820    23.2820    16.8360 O.2          1 2NC300   0.0000
    15 CB1         19.7700    25.3380    14.9660 C.3          1 2NC300   0.0000
    16 CG1         20.7570    26.3190    14.3210 C.3          1 2NC300   0.0000
    17 CG21        18.3860    25.4860    14.3420 C.3          1 2NC300   0.0000
    18 CD1         20.3850    27.7890    14.4740 C.3          1 2NC300   0.0000
    19 N2          18.1050    24.8090    18.1640 N.am         1 2NC300   0.0000
    20 CA2         17.3680    23.8020    18.9100 C.3          1 2NC300   0.0000
    21 C3          15.9090    23.5540    18.5870 C.2          1 2NC300   0.0000
    22 CB2         17.5610    23.9890    20.4130 C.3          1 2NC300   0.0000
    23 CG          19.0240    23.9850    20.8420 C.3          1 2NC300   0.0000
    24 CD          19.7870    22.7460    20.3390 C.3          1 2NC300   0.0000
    25 CE          19.1330    21.4400    20.8120 C.3          1 2NC300   0.0000
    26 N3          15.6610    23.2830    17.3100 N.2          1 2NC300   0.0000
    27 CA3         14.3330    22.9170    16.8430 C.3          1 2NC300   0.0000
    28 C4          14.2450    21.4430    17.2550 C.2          1 2NC300   0.0000
    29 O3          15.2370    20.7110    17.1840 O.2          1 2NC300   0.0000
    30 CB3         14.2570    23.0490    15.3140 C.3          1 2NC300   0.0000
    31 CG3         13.0480    22.3850    14.6540 C.3          1 2NC300   0.0000
    32 CD2         13.4140    21.0560    13.9910 C.3          1 2NC300   0.0000
    33 CE1         14.3520    21.2660    12.8130 C.3          1 2NC300   0.0000
    34 N4          13.0910    21.0150    17.7410 N.am         1 2NC300   0.0000
    35 CA4         12.9400    19.6280    18.1480 C.3          1 2NC300   0.0000
    36 C5          11.5130    19.1590    17.8980 C.2          1 2NC300   0.0000
    37 O4          10.5490    19.8640    18.1950 O.2          1 2NC300   0.0000
    38 CB4         13.3630    19.4570    19.6180 C.3          1 2NC300   0.0000
    39 CG4         13.2100    18.0450    20.1830 C.3          1 2NC300   0.0000
    40 CD3         11.8100    17.7800    20.7090 C.2          1 2NC300   0.0000
    41 OE1         11.1520    18.6860    21.2150 O.2          1 2NC300   0.0000
    42 NE2         11.3430    16.5430    20.5790 N.am         1 2NC300   0.0000
    43 N5          11.3980    17.9770    17.3040 N.am         1 2NC300   0.0000
    44 CA5         10.1090    17.3750    16.9790 C.3          1 2NC300   0.0000
    45 C6          10.0010    16.0120    17.6590 C.2          1 2NC300   0.0000
    46 O5          11.0010    15.2690    17.6390 O.2          1 2NC300   0.0000
    47 CB5          9.9830    17.1890    15.4660 C.3          1 2NC300   0.0000
    48 CG5         10.2830    18.4260    14.6360 C.3          1 2NC300   0.0000
    49 CD4         10.4270    18.0640    13.1610 C.3          1 2NC300   0.0000
    50 NE          11.4990    17.0930    12.9270 N.pl3        1 2NC300   1.0000
    51 CZ          11.5800    16.2950    11.8610 C.cat        1 2NC300   0.0000
    52 NH1         10.6490    16.3410    10.9130 N.pl3        1 2NC300   0.0000
    53 NH2         12.5930    15.4480    11.7420 N.pl3        1 2NC300   0.0000
    54 N6           8.9180    15.6940    18.1930 N.am         1 2NC300   0.0000
    55 HH31        24.0967    22.9123    18.5946 H            1 2NC300   0.0000
    56 HH32        24.6947    23.0164    20.1106 H            1 2NC300   0.0000
    57 HH33        23.1708    22.4815    19.8690 H            1 2NC300   0.0000
    58 H4          23.6396    24.6843    17.6660 H            1 2NC300   0.0000
    59 HA          22.8464    26.9419    19.2729 H            1 2NC300   0.0000
    60 HB          23.5200    28.3095    17.4278 H            1 2NC300   0.0000
    61 HG1         24.7750    26.1365    16.2320 H            1 2NC300   0.0000
    62 HG21        25.8732    27.9570    17.6840 H            1 2NC300   0.0000
    63 HG22        25.1259    27.8342    19.1307 H            1 2NC300   0.0000
    64 HG23        25.5812    26.4859    18.3299 H            1 2NC300   0.0000
    65 H11         21.6135    24.7909    16.9970 H            1 2NC300   0.0000
    66 HA1         19.2408    26.4513    16.6734 H            1 2NC300   0.0000
    67 HB1         20.0949    24.4060    14.8050 H            1 2NC300   0.0000
    68 HG11        20.8096    26.1110    13.3443 H            1 2NC300   0.0000
    69 HG12        21.6540    26.1793    14.7404 H            1 2NC300   0.0000
    70 H16         18.4462    25.3285    13.3563 H            1 2NC300   0.0000
    71 H17         17.7636    24.8174    14.7490 H            1 2NC300   0.0000
    72 H18         18.0409    26.4091    14.5116 H            1 2NC300   0.0000
    73 HD11        21.0771    28.3562    14.0276 H            1 2NC300   0.0000
    74 HD12        19.4947    27.9535    14.0494 H            1 2NC300   0.0000
    75 HD13        20.3391    28.0219    15.4454 H            1 2NC300   0.0000
    76 H22         17.9925    25.7762    18.3916 H            1 2NC300   0.0000
    77 HA2         17.8273    22.9393    18.6983 H            1 2NC300   0.0000
    78 H24         15.1892    23.5913    19.2802 H            1 2NC300   0.0000
    79 HB21        17.0896    23.2458    20.8878 H            1 2NC300   0.0000
    80 HB22        17.1556    24.8639    20.6780 H            1 2NC300   0.0000
    81 H27         19.0645    24.0020    21.8410 H            1 2NC300   0.0000
    82 HG2         19.4669    24.8037    20.4765 H            1 2NC300   0.0000
    83 HD1         20.7248    22.7815    20.6844 H            1 2NC300   0.0000
    84 HD2         19.7993    22.7578    19.3391 H            1 2NC300   0.0000
    85 HE1         19.6559    20.6610    20.4660 H            1 2NC300   0.0000
    86 HE2         19.1213    21.4161    21.8116 H            1 2NC300   0.0000
    87 HE3         18.1958    21.3923    20.4664 H            1 2NC300   0.0000
    88 HA3         13.6257    23.4635    17.2914 H            1 2NC300   0.0000
    89 HB31        15.0829    22.6379    14.9281 H            1 2NC300   0.0000
    90 HB32        14.2336    24.0233    15.0899 H            1 2NC300   0.0000
    91 HG31        12.6806    23.0023    13.9583 H            1 2NC300   0.0000
    92 HG32        12.3515    22.2166    15.3516 H            1 2NC300   0.0000
    93 HD21        12.5783    20.6126    13.6669 H            1 2NC300   0.0000
    94 HD22        13.8632    20.4689    14.6644 H            1 2NC300   0.0000
    95 HE11        14.5729    20.3820    12.4011 H            1 2NC300   0.0000
    96 HE12        13.9076    21.8490    12.1328 H            1 2NC300   0.0000
    97 HE13        15.1925    21.7052    13.1303 H            1 2NC300   0.0000
    98 H44         12.3212    21.6473    17.8284 H            1 2NC300   0.0000
    99 HA4         13.5510    19.0724    17.5841 H            1 2NC300   0.0000
   100 HB41        12.8054    20.0739    20.1735 H            1 2NC300   0.0000
   101 HB42        14.3254    19.7176    19.6946 H            1 2NC300   0.0000
   102 HG41        13.8621    17.9264    20.9318 H            1 2NC300   0.0000
   103 HG42        13.4109    17.3857    19.4584 H            1 2NC300   0.0000
   104 HE21        10.4266    16.3172    20.9094 H            1 2NC300   0.0000
   105 HE22        11.9079    15.8377    20.1507 H            1 2NC300   0.0000
   106 H52         12.2316    17.4772    17.0690 H            1 2NC300   0.0000
   107 HA5          9.3728    17.9686    17.3040 H            1 2NC300   0.0000
   108 HB51         9.0461    16.9020    15.2664 H            1 2NC300   0.0000
   109 HB52        10.6186    16.4685    15.1887 H            1 2NC300   0.0000
   110 HG51        11.1355    18.8382    14.9575 H            1 2NC300   0.0000
   111 HG52         9.5352    19.0814    14.7416 H            1 2NC300   0.0000
   112 HD41        10.6287    18.8960    12.6442 H            1 2NC300   0.0000
   113 HD42         9.5641    17.6734    12.8403 H            1 2NC300   0.0000
   114 HH11        10.7161    15.7399    10.1167 H            1 2NC300   0.0000
   115 HH12         9.8816    16.9767    10.9963 H            1 2NC300   0.0000
   116 HH21        12.6535    14.8499    10.9428 H            1 2NC300   0.0000
   117 HH22        13.2966    15.4072    12.4514 H            1 2NC300   0.0000
   118 H64          8.8245    14.8064    18.6440 H            1 2NC300   0.0000
   119 H65          8.1441    16.3269    18.1696 H            1 2NC300   0.0000
   120 HE          12.2212    17.0235    13.6152 H            1 2NC300   0.0000
@<TRIPOS>BOND
     1    1    2       2
     2    1    3       1
     3    1    4      am
     4    4    5       1
     5    5    6       1
     6    5    8       1
     7    6    7       2
     8    6   11      am
     9    8    9       1
    10    8   10       1
    11   11   12       1
    12   12   13       1
    13   12   15       1
    14   13   14       2
    15   13   19      am
    16   15   16       1
    17   15   17       1
    18   16   18       1
    19   19   20       1
    20   20   21       1
    21   20   22       1
    22   21   26       2
    23   22   23       1
    24   23   24       1
    25   24   25       1
    26   26   27       1
    27   27   28       1
    28   27   30       1
    29   28   29       2
    30   28   34      am
    31   30   31       1
    32   31   32       1
    33   32   33       1
    34   34   35       1
    35   35   36       1
    36   35   38       1
    37   36   37       2
    38   36   43      am
    39   38   39       1
    40   39   40       1
    41   40   41       2
    42   40   42      am
    43   43   44       1
    44   44   45       1
    45   44   47       1
    46   45   46       2
    47   45   54      am
    48   47   48       1
    49   48   49       1
    50   49   50       1
    51   50   51      ar
    52   51   52      ar
    53   51   53      ar
    54    3   55       1
    55    3   56       1
    56    3   57       1
    57    4   58       1
    58    5   59       1
    59    8   60       1
    60    9   61       1
    61   10   62       1
    62   10   63       1
    63   10   64       1
    64   11   65       1
    65   12   66       1
    66   15   67       1
    67   16   68       1
    68   16   69       1
    69   17   70       1
    70   17   71       1
    71   17   72       1
    72   18   73       1
    73   18   74       1
    74   18   75       1
    75   19   76       1
    76   20   77       1
    77   21   78       1
    78   22   79       1
    79   22   80       1
    80   23   81       1
    81   23   82       1
    82   24   83       1
    83   24   84       1
    84   25   85       1
    85   25   86       1
    86   25   87       1
    87   27   88       1
    88   30   89       1
    89   30   90       1
    90   31   91       1
    91   31   92       1
    92   32   93       1
    93   32   94       1
    94   33   95       1
    95   33   96       1
    96   33   97       1
    97   34   98       1
    98   35   99       1
    99   38  100       1
   100   38  101       1
   101   39  102       1
   102   39  103       1
   103   42  104       1
   104   42  105       1
   105   43  106       1
   106   44  107       1
   107   47  108       1
   108   47  109       1
   109   48  110       1
   110   48  111       1
   111   49  112       1
   112   49  113       1
   113   52  114       1
   114   52  115       1
   115   53  116       1
   116   53  117       1
   117   54  118       1
   118   54  119       1
   119   50  120       1
@<TRIPOS>SUBSTRUCTURE
     1 2NC300      1 GROUP             4 D     2NC     0 **** 2NC D 300
