@<TRIPOS>MOLECULE
2azy_CHD_1_ligand
   68    71     1     0     0
SMALL
NO_CHARGES


@<TRIPOS>ATOM
     1 C1          38.6790    19.0730    14.5290 C.3          1 CHD237   0.0000
     2 C2          39.1030    18.3330    13.1670 C.3          1 CHD237   0.0000
     3 C3          37.9160    18.3580    12.1490 C.3          1 CHD237   0.0000
     4 O3          38.3200    17.6660    10.9270 O.3          1 CHD237   0.0000
     5 C4          36.6300    17.6550    12.7240 C.3          1 CHD237   0.0000
     6 C5          36.1430    18.3680    14.0720 C.3          1 CHD237   0.0000
     7 C6          34.8350    17.6850    14.7290 C.3          1 CHD237   0.0000
     8 C7          35.0880    16.2270    15.2820 C.3          1 CHD237   0.0000
     9 O7          35.3820    15.2020    14.2550 O.3          1 CHD237   0.0000
    10 C8          36.2770    16.2110    16.3810 C.3          1 CHD237   0.0000
    11 C9          37.6540    16.8440    15.7180 C.3          1 CHD237   0.0000
    12 C10         37.3690    18.4060    15.1940 C.3          1 CHD237   0.0000
    13 C11         38.8630    16.7840    16.8800 C.3          1 CHD237   0.0000
    14 C12         39.0080    15.2490    17.2530 C.3          1 CHD237   0.0000
    15 O12         39.3890    14.4850    16.0490 O.3          1 CHD237   0.0000
    16 C13         37.6390    14.6030    18.0050 C.3          1 CHD237   0.0000
    17 C14         36.5220    14.6670    16.9170 C.3          1 CHD237   0.0000
    18 C15         35.2680    13.9910    17.6310 C.3          1 CHD237   0.0000
    19 C16         36.0010    12.9320    18.6150 C.3          1 CHD237   0.0000
    20 C17         37.6260    13.1020    18.3430 C.3          1 CHD237   0.0000
    21 C18         37.4210    15.6200    19.3460 C.3          1 CHD237   0.0000
    22 C19         37.0230    19.4980    16.3350 C.3          1 CHD237   0.0000
    23 C20         38.6510    12.6590    19.5690 C.3          1 CHD237   0.0000
    24 C21         40.1870    12.9400    19.5380 C.3          1 CHD237   0.0000
    25 C22         38.5310    11.0810    19.8470 C.3          1 CHD237   0.0000
    26 C23         38.8260     9.8870    18.8180 C.3          1 CHD237   0.0000
    27 O25         38.6450     7.6320    18.1540 O.co2        1 CHD237   0.0000
    28 C24         38.6730     8.4840    19.2060 C.2          1 CHD237   0.0000
    29 O26         38.5710     8.0740    20.3960 O.co2        1 CHD237  -1.0000
    30 H1          38.4862    20.0335    14.3285 H            1 CHD237   0.0000
    31 H2          39.4370    19.0137    15.1785 H            1 CHD237   0.0000
    32 H3          39.3461    17.3841    13.3681 H            1 CHD237   0.0000
    33 H4          39.8910    18.8015    12.7676 H            1 CHD237   0.0000
    34 H5          37.6965    19.3082    11.9279 H            1 CHD237   0.0000
    35 H6          37.5179    17.2494    10.4992 H            1 CHD237   0.0000
    36 H7          36.8399    16.6967    12.9180 H            1 CHD237   0.0000
    37 H8          35.8981    17.7050    12.0444 H            1 CHD237   0.0000
    38 H9          35.9096    19.3139    13.8467 H            1 CHD237   0.0000
    39 H10         34.1197    17.6382    14.0318 H            1 CHD237   0.0000
    40 H11         34.5254    18.2602    15.4861 H            1 CHD237   0.0000
    41 H12         34.2518    15.9417    15.7503 H            1 CHD237   0.0000
    42 H13         34.9199    15.4431    13.4016 H            1 CHD237   0.0000
    43 H14         36.0040    16.7800    17.1567 H            1 CHD237   0.0000
    44 H15         37.9262    16.2831    14.9361 H            1 CHD237   0.0000
    45 H16         38.6022    17.3171    17.6849 H            1 CHD237   0.0000
    46 H17         39.7223    17.1374    16.5102 H            1 CHD237   0.0000
    47 H18         39.7648    15.1733    17.9023 H            1 CHD237   0.0000
    48 H19         38.6835    14.5930    15.3486 H            1 CHD237   0.0000
    49 H20         36.7957    14.0976    16.1419 H            1 CHD237   0.0000
    50 H21         34.6754    13.5289    16.9712 H            1 CHD237   0.0000
    51 H22         34.7340    14.6614    18.1463 H            1 CHD237   0.0000
    52 H23         35.7089    11.9998    18.4012 H            1 CHD237   0.0000
    53 H24         35.7853    13.1383    19.5694 H            1 CHD237   0.0000
    54 H25         37.8686    12.5867    17.5210 H            1 CHD237   0.0000
    55 H26         36.6224    15.3184    19.8668 H            1 CHD237   0.0000
    56 H27         38.2328    15.5818    19.9287 H            1 CHD237   0.0000
    57 H28         37.2794    16.5590    19.0327 H            1 CHD237   0.0000
    58 H29         36.2107    19.2064    16.8401 H            1 CHD237   0.0000
    59 H30         37.7958    19.5787    16.9644 H            1 CHD237   0.0000
    60 H31         36.8484    20.3843    15.9061 H            1 CHD237   0.0000
    61 H32         38.3058    13.1100    20.3921 H            1 CHD237   0.0000
    62 H33         40.6070    12.5892    20.3750 H            1 CHD237   0.0000
    63 H34         40.5931    12.4852    18.7454 H            1 CHD237   0.0000
    64 H35         40.3444    13.9255    19.4738 H            1 CHD237   0.0000
    65 H36         37.5832    10.9430    20.1346 H            1 CHD237   0.0000
    66 H37         39.1421    10.9099    20.6198 H            1 CHD237   0.0000
    67 H38         39.7759     9.9961    18.5249 H            1 CHD237   0.0000
    68 H39         38.2177    10.0312    18.0375 H            1 CHD237   0.0000
@<TRIPOS>BOND
     1    1    2       1
     2    1   12       1
     3    2    3       1
     4    3    4       1
     5    3    5       1
     6    5    6       1
     7    6    7       1
     8    6   12       1
     9    7    8       1
    10    8    9       1
    11    8   10       1
    12   10   11       1
    13   10   17       1
    14   11   12       1
    15   11   13       1
    16   12   22       1
    17   13   14       1
    18   14   15       1
    19   14   16       1
    20   16   17       1
    21   16   20       1
    22   16   21       1
    23   17   18       1
    24   18   19       1
    25   19   20       1
    26   20   23       1
    27   23   24       1
    28   23   25       1
    29   25   26       1
    30   26   28       1
    31   27   28      ar
    32   28   29      ar
    33    1   30       1
    34    1   31       1
    35    2   32       1
    36    2   33       1
    37    3   34       1
    38    4   35       1
    39    5   36       1
    40    5   37       1
    41    6   38       1
    42    7   39       1
    43    7   40       1
    44    8   41       1
    45    9   42       1
    46   10   43       1
    47   11   44       1
    48   13   45       1
    49   13   46       1
    50   14   47       1
    51   15   48       1
    52   17   49       1
    53   18   50       1
    54   18   51       1
    55   19   52       1
    56   19   53       1
    57   20   54       1
    58   21   55       1
    59   21   56       1
    60   21   57       1
    61   22   58       1
    62   22   59       1
    63   22   60       1
    64   23   61       1
    65   24   62       1
    66   24   63       1
    67   24   64       1
    68   25   65       1
    69   25   66       1
    70   26   67       1
    71   26   68       1
@<TRIPOS>SUBSTRUCTURE
     1 CHD237      1 GROUP             4 A     CHD     0 **** CHD A 237
