@<TRIPOS>MOLECULE
1coz_CTP_2_ligand
   41    42     1     0     0
SMALL
NO_CHARGES


@<TRIPOS>ATOM
     1 N1          19.9930    14.2050   -39.0070 N.pl3        1 CTP630   0.0000
     2 C2          20.2920    12.8940   -38.8680 C.2          1 CTP630   0.0000
     3 N3          19.5450    12.0370   -38.1820 N.2          1 CTP630   0.0000
     4 C4          18.4330    12.4610   -37.5830 C.2          1 CTP630   0.0000
     5 C5          18.0650    13.7930   -37.6730 C.2          1 CTP630   0.0000
     6 C6          18.8830    14.6330   -38.4010 C.2          1 CTP630   0.0000
     7 O2          21.3110    12.4070   -39.3880 O.2          1 CTP630   0.0000
     8 N4          17.7130    11.5670   -36.9070 N.pl3        1 CTP630   0.0000
     9 C1'         20.8240    15.0730   -39.8430 C.3          1 CTP630   0.0000
    10 C2'         20.1020    15.3360   -41.1350 C.3          1 CTP630   0.0000
    11 O2'         20.2680    14.2060   -41.9550 O.3          1 CTP630   0.0000
    12 C3'         20.7740    16.5710   -41.6330 C.3          1 CTP630   0.0000
    13 C4'         21.3010    17.2470   -40.3720 C.3          1 CTP630   0.0000
    14 O4'         20.9990    16.3680   -39.2850 O.3          1 CTP630   0.0000
    15 O3'         21.9670    16.2850   -42.3880 O.3          1 CTP630   0.0000
    16 C5'         20.5490    18.5510   -40.2740 C.3          1 CTP630   0.0000
    17 O5'         19.7470    18.5480   -39.1240 O.3          1 CTP630   0.0000
    18 PA          18.1230    18.8570   -39.0550 P.3          1 CTP630   0.0000
    19 O1A         17.4980    18.8040   -40.4720 O.co2        1 CTP630   0.0000
    20 O2A         18.0800    20.3060   -38.5320 O.co2        1 CTP630  -1.0000
    21 O3A         17.4720    17.7250   -38.0210 O.3          1 CTP630   0.0000
    22 PB          15.9490    17.1590   -38.3140 P.3          1 CTP630   0.0000
    23 O1B         15.5540    16.3370   -37.0370 O.co2        1 CTP630   0.0000
    24 O2B         15.9540    16.2190   -39.5740 O.co2        1 CTP630  -1.0000
    25 O3B         14.9140    18.4400   -38.4750 O.3          1 CTP630   0.0000
    26 PG          13.3420    18.2510   -38.9590 P.3          1 CTP630   0.0000
    27 O1G         12.7520    16.9550   -38.2900 O.co2        1 CTP630   0.0000
    28 O2G         13.3270    18.1180   -40.5340 O.co2        1 CTP630  -1.0000
    29 O3G         12.5770    19.5200   -38.4790 O.co2        1 CTP630  -1.0000
    30 H1          17.2373    14.1336   -37.2270 H            1 CTP630   0.0000
    31 H2          18.6349    15.5987   -38.4775 H            1 CTP630   0.0000
    32 H3          16.8723    11.8487   -36.4446 H            1 CTP630   0.0000
    33 H4          18.0132    10.6142   -36.8620 H            1 CTP630   0.0000
    34 H1'         21.7106    14.6450   -40.0186 H            1 CTP630   0.0000
    35 H2'         19.1315    15.5080   -40.9663 H            1 CTP630   0.0000
    36 H7          19.7965    14.3530   -42.8245 H            1 CTP630   0.0000
    37 H3'         20.1444    17.1612   -42.1382 H            1 CTP630   0.0000
    38 H4'         22.2859    17.4072   -40.4382 H            1 CTP630   0.0000
    39 H10         22.3811    15.4400   -42.0496 H            1 CTP630   0.0000
    40 H5'1        19.9709    18.6630   -41.0823 H            1 CTP630   0.0000
    41 H5'2        21.2008    19.3077   -40.2229 H            1 CTP630   0.0000
@<TRIPOS>BOND
     1    1    2       1
     2    1    6       1
     3    1    9       1
     4    2    3       1
     5    2    7       2
     6    3    4       2
     7    4    5       1
     8    4    8       1
     9    5    6       2
    10    9   10       1
    11    9   14       1
    12   10   11       1
    13   10   12       1
    14   12   13       1
    15   12   15       1
    16   13   14       1
    17   13   16       1
    18   16   17       1
    19   17   18       1
    20   18   19      ar
    21   18   20      ar
    22   18   21       1
    23   21   22       1
    24   22   23      ar
    25   22   24      ar
    26   22   25       1
    27   25   26       1
    28   26   27      ar
    29   26   28      ar
    30   26   29      ar
    31    5   30       1
    32    6   31       1
    33    8   32       1
    34    8   33       1
    35    9   34       1
    36   10   35       1
    37   11   36       1
    38   12   37       1
    39   13   38       1
    40   15   39       1
    41   16   40       1
    42   16   41       1
@<TRIPOS>SUBSTRUCTURE
     1 CTP630      1 GROUP             4 B     CTP     0 **** CTP B 630
