@<TRIPOS>MOLECULE
2q0f_UTP_1_ligand
   40    41     1     0     0
SMALL
NO_CHARGES


@<TRIPOS>ATOM
     1 PA          23.0240    24.5630   -47.5770 P.3          1 UTP501   0.0000
     2 O1A         21.9360    25.3840   -48.2310 O.co2        1 UTP501   0.0000
     3 O2A         24.4400    25.0820   -47.5740 O.co2        1 UTP501  -1.0000
     4 O3A         22.7980    24.2520   -46.0010 O.3          1 UTP501   0.0000
     5 O5'         23.1030    23.1570   -48.3470 O.3          1 UTP501   0.0000
     6 PB          21.5330    23.8800   -45.0510 P.3          1 UTP501   0.0000
     7 O1B         20.3570    23.4270   -45.8930 O.co2        1 UTP501   0.0000
     8 O2B         22.1350    22.9780   -43.9890 O.co2        1 UTP501  -1.0000
     9 O3B         21.1900    25.2130   -44.1610 O.3          1 UTP501   0.0000
    10 PG          20.5380    26.5930   -44.7130 P.3          1 UTP501   0.0000
    11 O1G         21.6870    27.5430   -45.0400 O.co2        1 UTP501   0.0000
    12 O2G         19.6620    27.0160   -43.5540 O.co2        1 UTP501  -1.0000
    13 O3G         19.7430    26.1760   -45.9340 O.co2        1 UTP501  -1.0000
    14 C5'         22.2970    22.0400   -47.9910 C.3          1 UTP501   0.0000
    15 C4'         22.9610    20.7950   -48.5540 C.3          1 UTP501   0.0000
    16 O4'         23.4910    20.9970   -49.8660 O.3          1 UTP501   0.0000
    17 C1'         24.6600    20.1710   -50.0510 C.3          1 UTP501   0.0000
    18 C2'         24.8630    19.4310   -48.7220 C.3          1 UTP501   0.0000
    19 O2'         24.2610    18.1220   -48.7200 O.3          1 UTP501   0.0000
    20 C3'         24.1830    20.3830   -47.7580 C.3          1 UTP501   0.0000
    21 O3'         23.8950    19.8580   -46.4620 O.3          1 UTP501   0.0000
    22 N1          25.8720    20.9800   -50.3160 N.pl3        1 UTP501   0.0000
    23 C6          25.8190    22.3140   -50.1570 C.2          1 UTP501   0.0000
    24 C2          27.0500    20.3890   -50.6930 C.2          1 UTP501   0.0000
    25 O2          27.1700    19.1410   -50.8760 O.2          1 UTP501   0.0000
    26 N3          28.1540    21.1430   -50.9320 N.pl3        1 UTP501   0.0000
    27 C4          28.1310    22.4880   -50.7730 C.2          1 UTP501   0.0000
    28 O4          29.2730    23.2030   -51.0030 O.2          1 UTP501   0.0000
    29 C5          26.9460    23.1160   -50.3700 C.2          1 UTP501   0.0000
    30 H5'1        21.3812    22.1430   -48.3792 H            1 UTP501   0.0000
    31 H5'2        22.2312    21.9706   -46.9956 H            1 UTP501   0.0000
    32 H4'         22.3026    20.0425   -48.5707 H            1 UTP501   0.0000
    33 H1'         24.5096    19.5175   -50.7929 H            1 UTP501   0.0000
    34 H2'         25.8379    19.3630   -48.5101 H            1 UTP501   0.0000
    35 H6          24.7820    17.5164   -48.1184 H            1 UTP501   0.0000
    36 H3'         24.7686    21.1859   -47.6467 H            1 UTP501   0.0000
    37 H8          24.5982    19.1942   -46.2074 H            1 UTP501   0.0000
    38 H9          24.9579    22.7413   -49.8813 H            1 UTP501   0.0000
    39 H10         28.9982    20.6977   -51.2304 H            1 UTP501   0.0000
    40 H11         26.9063    24.1065   -50.2385 H            1 UTP501   0.0000
@<TRIPOS>BOND
     1    1    2      ar
     2    1    3      ar
     3    1    4       1
     4    1    5       1
     5    4    6       1
     6    5   14       1
     7    6    7      ar
     8    6    8      ar
     9    6    9       1
    10    9   10       1
    11   10   11      ar
    12   10   12      ar
    13   10   13      ar
    14   14   15       1
    15   15   16       1
    16   15   20       1
    17   16   17       1
    18   17   18       1
    19   17   22       1
    20   18   19       1
    21   18   20       1
    22   20   21       1
    23   22   23       1
    24   22   24       1
    25   23   29       2
    26   24   25       2
    27   24   26       1
    28   26   27       1
    29   27   28       2
    30   27   29       1
    31   29   40       1
    32   26   39       1
    33   23   38       1
    34   21   37       1
    35   14   30       1
    36   14   31       1
    37   15   32       1
    38   17   33       1
    39   18   34       1
    40   19   35       1
    41   20   36       1
@<TRIPOS>SUBSTRUCTURE
     1 UTP501      1 GROUP             4 A     UTP     0 **** UTP A 501
