@<TRIPOS>MOLECULE
2hl0_A3S_1_ligand
   45    47     1     0     0
SMALL
NO_CHARGES


@<TRIPOS>ATOM
     1 O5'         13.7530    33.6000    22.2330 O.3          1 A3S500   0.0000
     2 C5'         14.3630    33.4270    20.9500 C.3          1 A3S500   0.0000
     3 C4'         13.8920    32.1150    20.3180 C.3          1 A3S500   0.0000
     4 O4'         14.2380    31.0000    21.1580 O.3          1 A3S500   0.0000
     5 C1'         13.0580    30.2120    21.4010 C.3          1 A3S500   0.0000
     6 N9          12.6250    30.4460    22.8000 N.pl3        1 A3S500   0.0000
     7 C4          11.3860    30.4390    23.2900 C.ar         1 A3S500   0.0000
     8 N3          10.1700    30.3250    22.7360 N.ar         1 A3S500   0.0000
     9 C2           9.0780    30.3430    23.4820 C.ar         1 A3S500   0.0000
    10 N1           9.1460    30.4720    24.7960 N.ar         1 A3S500   0.0000
    11 C6          10.3270    30.5910    25.4220 C.ar         1 A3S500   0.0000
    12 N6          10.3860    30.7130    26.7450 N.pl3        1 A3S500   0.0000
    13 C5          11.4940    30.5790    24.6670 C.ar         1 A3S500   0.0000
    14 N7          12.7850    30.6740    24.9650 N.2          1 A3S500   0.0000
    15 C8          13.4640    30.5960    23.8230 C.2          1 A3S500   0.0000
    16 C2'         12.0640    30.6180    20.3090 C.3          1 A3S500   0.0000
    17 O2'         12.4210    29.9710    19.0850 O.3          1 A3S500   0.0000
    18 C3'         12.3660    32.1120    20.2250 C.3          1 A3S500   0.0000
    19 N8          11.9400    32.7250    18.9580 N.am         1 A3S500   0.0000
    20 N            9.1470    34.3420    17.3240 N.4          1 A3S500   1.0000
    21 CA          10.5940    34.1320    17.4690 C.3          1 A3S500   0.0000
    22 CB          11.3210    35.4690    17.3060 C.3          1 A3S500   0.0000
    23 OG          11.0930    35.9810    15.9910 O.3          1 A3S500   0.0000
    24 C           10.9050    33.5540    18.8510 C.2          1 A3S500   0.0000
    25 O           10.0980    33.9030    19.8890 O.2          1 A3S500   0.0000
    26 H5'         14.4631    33.6569    22.9348 H            1 A3S500   0.0000
    27 H5'1        15.3571    33.4050    21.0564 H            1 A3S500   0.0000
    28 H5'2        14.1081    34.1905    20.3566 H            1 A3S500   0.0000
    29 H4'         14.2951    32.0032    19.4097 H            1 A3S500   0.0000
    30 H1'         13.2853    29.2446    21.2893 H            1 A3S500   0.0000
    31 H6           8.1833    30.2574    23.0435 H            1 A3S500   0.0000
    32 H7          11.2721    30.8010    27.2000 H            1 A3S500   0.0000
    33 H8           9.5442    30.7168    27.2848 H            1 A3S500   0.0000
    34 H9          14.4598    30.6432    23.7446 H            1 A3S500   0.0000
    35 H2'         11.1164    30.4365    20.5719 H            1 A3S500   0.0000
    36 H11         11.9556    29.0878    19.0267 H            1 A3S500   0.0000
    37 H3'         11.9651    32.5964    21.0026 H            1 A3S500   0.0000
    38 H13         12.4572    32.5065    18.1305 H            1 A3S500   0.0000
    39 H14          8.6712    33.4689    17.4304 H            1 A3S500   0.0000
    40 H15          8.8311    34.9814    18.0250 H            1 A3S500   0.0000
    41 HA          10.9088    33.4955    16.7649 H            1 A3S500   0.0000
    42 HB1         12.3020    35.3336    17.4451 H            1 A3S500   0.0000
    43 HB2         10.9753    36.1204    17.9814 H            1 A3S500   0.0000
    44 HG          10.1989    35.6745    15.6643 H            1 A3S500   0.0000
    45 H20          8.9540    34.7186    16.4180 H            1 A3S500   0.0000
@<TRIPOS>BOND
     1    1    2       1
     2    2    3       1
     3    3    4       1
     4    3   18       1
     5    4    5       1
     6    5    6       1
     7    5   16       1
     8    6    7       1
     9    6   15       1
    10    7    8      ar
    11    7   13      ar
    12    8    9      ar
    13    9   10      ar
    14   10   11      ar
    15   11   12       1
    16   11   13      ar
    17   13   14       1
    18   14   15       2
    19   16   17       1
    20   16   18       1
    21   18   19       1
    22   19   24      am
    23   20   21       1
    24   21   22       1
    25   21   24       1
    26   22   23       1
    27   24   25       2
    28    1   26       1
    29    2   27       1
    30    2   28       1
    31    3   29       1
    32    5   30       1
    33    9   31       1
    34   12   32       1
    35   12   33       1
    36   15   34       1
    37   16   35       1
    38   17   36       1
    39   18   37       1
    40   19   38       1
    41   20   39       1
    42   20   40       1
    43   21   41       1
    44   22   42       1
    45   22   43       1
    46   23   44       1
    47   20   45       1
@<TRIPOS>SUBSTRUCTURE
     1 A3S500      1 GROUP             4 A     A3S     0 **** A3S A 500
