@<TRIPOS>MOLECULE
3sp6_IL2_1_ligand
   57    58     1     0     0
SMALL
NO_CHARGES


@<TRIPOS>ATOM
     1 C1           3.1580    -1.0870    30.0940 C.3          1 IL2901   0.0000
     2 O1           3.5030     1.8590    27.9200 O.3          1 IL2901   0.0000
     3 C2           2.9290    -1.6040    28.6830 C.3          1 IL2901   0.0000
     4 O2           4.8690     3.5150    32.7430 O.3          1 IL2901   0.0000
     5 C3           3.3190     0.4110    29.9440 C.3          1 IL2901   0.0000
     6 O3          -2.1300    -1.2520    26.3950 O.co2        1 IL2901   0.0000
     7 C4           3.4390    -0.5460    27.7160 C.3          1 IL2901   0.0000
     8 O4          -0.6880     0.3950    26.0760 O.co2        1 IL2901  -1.0000
     9 C5           3.9220     0.6320    28.5530 C.3          1 IL2901   0.0000
    10 C6           1.9520    -1.4630    30.9430 C.3          1 IL2901   0.0000
    11 C7           1.4320    -1.8400    28.4960 C.3          1 IL2901   0.0000
    12 C8           0.8940    -1.6540    29.8890 C.2          1 IL2901   0.0000
    13 C9           4.1460     0.9580    31.0820 C.2          1 IL2901   0.0000
    14 C10         -0.4160    -1.6190    30.1460 C.2          1 IL2901   0.0000
    15 C11          3.5020     1.7070    31.9730 C.2          1 IL2901   0.0000
    16 C12         -1.3610    -1.8150    28.9890 C.3          1 IL2901   0.0000
    17 C13          4.1540     2.3400    33.1790 C.3          1 IL2901   0.0000
    18 C14         -2.3880    -0.6960    28.9910 C.3          1 IL2901   0.0000
    19 C15          3.0370     2.7710    34.1340 C.3          1 IL2901   0.0000
    20 C16         -1.9180     0.4270    28.0890 C.3          1 IL2901   0.0000
    21 C17          3.0620     2.0760    35.4860 C.3          1 IL2901   0.0000
    22 C18          3.0650     4.2830    34.3270 C.3          1 IL2901   0.0000
    23 C19         -1.5550    -0.1890    26.7610 C.2          1 IL2901   0.0000
    24 C20          2.6200     3.0580    36.5040 C.1          1 IL2901   0.0000
    25 C21          2.3010     3.8340    37.3360 C.1          1 IL2901   0.0000
    26 C22          1.9350     4.7740    38.4140 C.3          1 IL2901   0.0000
    27 H1           3.9898    -1.4875    30.4783 H            1 IL2901   0.0000
    28 H2           2.6747     1.6922    27.3851 H            1 IL2901   0.0000
    29 H3           3.4289    -2.4594    28.5476 H            1 IL2901   0.0000
    30 H4           4.2288     4.1578    32.3224 H            1 IL2901   0.0000
    31 H5           2.4139     0.8353    29.9724 H            1 IL2901   0.0000
    32 H6           2.7015    -0.2543    27.1069 H            1 IL2901   0.0000
    33 H7           4.1942    -0.9133    27.1730 H            1 IL2901   0.0000
    34 H8           4.9199     0.6115    28.6143 H            1 IL2901   0.0000
    35 H9           1.7082    -0.7293    31.5772 H            1 IL2901   0.0000
    36 H10          2.1141    -2.3063    31.4554 H            1 IL2901   0.0000
    37 H11          1.2515    -2.7643    28.1597 H            1 IL2901   0.0000
    38 H12          1.0374    -1.1725    27.8645 H            1 IL2901   0.0000
    39 H13          5.1245     0.7678    31.1618 H            1 IL2901   0.0000
    40 H14         -0.7577    -1.4680    31.0736 H            1 IL2901   0.0000
    41 H15          2.5235     1.8607    31.8353 H            1 IL2901   0.0000
    42 H16         -1.8253    -2.6958    29.0814 H            1 IL2901   0.0000
    43 H17         -0.8479    -1.7971    28.1308 H            1 IL2901   0.0000
    44 H18          4.7730     1.6946    33.6265 H            1 IL2901   0.0000
    45 H19         -2.5010    -0.3497    29.9223 H            1 IL2901   0.0000
    46 H20         -3.2630    -1.0468    28.6573 H            1 IL2901   0.0000
    47 H21          2.1669     2.5423    33.6974 H            1 IL2901   0.0000
    48 H22         -1.1184     0.8754    28.4886 H            1 IL2901   0.0000
    49 H23         -2.6499     1.0974    27.9670 H            1 IL2901   0.0000
    50 H24          3.9898     1.7653    35.6924 H            1 IL2901   0.0000
    51 H25          2.4420     1.2915    35.4774 H            1 IL2901   0.0000
    52 H26          2.3322     4.5529    34.9517 H            1 IL2901   0.0000
    53 H27          3.9475     4.5537    34.7116 H            1 IL2901   0.0000
    54 H28          2.9336     4.7342    33.4443 H            1 IL2901   0.0000
    55 H29          1.3220     5.4756    38.0506 H            1 IL2901   0.0000
    56 H30          1.4736     4.2759    39.1482 H            1 IL2901   0.0000
    57 H31          2.7615     5.2072    38.7734 H            1 IL2901   0.0000
@<TRIPOS>BOND
     1    1    3       1
     2    1    5       1
     3    1   10       1
     4    2    9       1
     5    3    7       1
     6    3   11       1
     7    4   17       1
     8    5    9       1
     9    5   13       1
    10    6   23      ar
    11    7    9       1
    12    8   23      ar
    13   10   12       1
    14   11   12       1
    15   12   14       2
    16   13   15       2
    17   14   16       1
    18   15   17       1
    19   16   18       1
    20   17   19       1
    21   18   20       1
    22   19   21       1
    23   19   22       1
    24   20   23       1
    25   21   24       1
    26   24   25       3
    27   25   26       1
    28    1   27       1
    29    2   28       1
    30    3   29       1
    31    4   30       1
    32    5   31       1
    33   26   57       1
    34    7   32       1
    35    7   33       1
    36    9   34       1
    37   10   35       1
    38   10   36       1
    39   11   37       1
    40   11   38       1
    41   13   39       1
    42   14   40       1
    43   15   41       1
    44   16   42       1
    45   16   43       1
    46   17   44       1
    47   18   45       1
    48   18   46       1
    49   19   47       1
    50   20   48       1
    51   20   49       1
    52   21   50       1
    53   21   51       1
    54   22   52       1
    55   22   53       1
    56   22   54       1
    57   26   55       1
    58   26   56       1
@<TRIPOS>SUBSTRUCTURE
     1 IL2901      1 GROUP             4 A     IL2     0 **** IL2 A 901
