@<TRIPOS>MOLECULE
1dmh_MCT_1_ligand
   16    16     1     0     0
SMALL
NO_CHARGES


@<TRIPOS>ATOM
     1 C1           1.0110    82.8210    78.9100 C.ar         1 MCT401   0.0000
     2 C2           1.9500    82.0050    78.2560 C.ar         1 MCT401   0.0000
     3 C3           1.6510    81.5550    76.9530 C.ar         1 MCT401   0.0000
     4 O3           2.5580    80.7600    76.3010 O.3          1 MCT401  -1.0000
     5 C4           0.4700    81.8950    76.3150 C.ar         1 MCT401   0.0000
     6 O4           0.2330    81.4330    75.0440 O.3          1 MCT401   0.0000
     7 C5          -0.4600    82.6890    76.9320 C.ar         1 MCT401   0.0000
     8 C6          -0.1690    83.1770    78.3050 C.ar         1 MCT401   0.0000
     9 C            1.3130    83.3220    80.3350 C.3          1 MCT401   0.0000
    10 H1           2.8076    81.7501    78.7027 H            1 MCT401   0.0000
    11 H2          -0.6170    81.6732    74.5751 H            1 MCT401   0.0000
    12 H3          -1.3126    82.9339    76.4705 H            1 MCT401   0.0000
    13 H4          -0.8262    83.7591    78.7838 H            1 MCT401   0.0000
    14 H5           0.5531    83.8861    80.6580 H            1 MCT401   0.0000
    15 H6           1.4300    82.5389    80.9458 H            1 MCT401   0.0000
    16 H7           2.1519    83.8662    80.3262 H            1 MCT401   0.0000
@<TRIPOS>BOND
     1    1    2      ar
     2    1    8      ar
     3    1    9       1
     4    2    3      ar
     5    3    4       1
     6    3    5      ar
     7    5    6       1
     8    5    7      ar
     9    7    8      ar
    10    2   10       1
    11    9   16       1
    12    6   11       1
    13    7   12       1
    14    8   13       1
    15    9   14       1
    16    9   15       1
@<TRIPOS>SUBSTRUCTURE
     1 MCT401      1 GROUP             4 A     MCT     0 **** MCT A 401
