@<TRIPOS>MOLECULE
3ozb_HPA_2_ligand
   14    15     1     0     0
SMALL
NO_CHARGES


@<TRIPOS>ATOM
     1 N1          53.4380    20.0110   134.8690 N.pl3        1 HPA260   0.0000
     2 C2          52.1590    20.1240   135.3520 C.2          1 HPA260   0.0000
     3 N3          51.1650    20.6500   134.5560 N.2          1 HPA260   0.0000
     4 C4          51.4350    21.0510   133.2910 C.2          1 HPA260   0.0000
     5 C5          52.7220    20.9260   132.7870 C.2          1 HPA260   0.0000
     6 C6          53.7360    20.4140   133.5780 C.2          1 HPA260   0.0000
     7 O6          54.9160    20.6190   133.2630 O.2          1 HPA260   0.0000
     8 N7          52.7070    21.3900   131.5340 N.pl3        1 HPA260   0.0000
     9 C8          51.4430    21.7970   131.2600 C.2          1 HPA260   0.0000
    10 N9          50.6500    21.5920   132.3280 N.2          1 HPA260   0.0000
    11 H1          54.1587    19.6358   135.4520 H            1 HPA260   0.0000
    12 H2          51.9480    19.8244   136.2824 H            1 HPA260   0.0000
    13 H3          51.1437    22.1918   130.3913 H            1 HPA260   0.0000
    14 H4          53.4877    21.4299   130.9104 H            1 HPA260   0.0000
@<TRIPOS>BOND
     1    1    2       1
     2    1    6       1
     3    2    3       2
     4    3    4       1
     5    4    5       2
     6    4   10       1
     7    5    6       1
     8    5    8       1
     9    6    7       2
    10    8    9       1
    11    9   10       2
    12    1   11       1
    13    2   12       1
    14    9   13       1
    15    8   14       1
@<TRIPOS>SUBSTRUCTURE
     1 HPA260      1 GROUP             4 B     HPA     0 **** HPA B 260
