@<TRIPOS>MOLECULE
1q7g_NHO_1_ligand
   88    92     1     0     0
SMALL
NO_CHARGES


@<TRIPOS>ATOM
     1 PA          71.7760    25.4410   -13.9290 P.3          1 NHO361   0.0000
     2 O1A         72.0400    26.8760   -14.2110 O.co2        1 NHO361   0.0000
     3 O2A         71.0050    24.8810   -15.0590 O.co2        1 NHO361  -1.0000
     4 O5'         73.1000    24.5350   -13.7380 O.3          1 NHO361   0.0000
     5 C5'         74.3020    25.0910   -13.2330 C.3          1 NHO361   0.0000
     6 C4'         75.4810    24.6360   -14.0840 C.3          1 NHO361   0.0000
     7 O4'         75.9120    23.3340   -13.7330 O.3          1 NHO361   0.0000
     8 C3'         75.2370    24.5230   -15.5850 C.3          1 NHO361   0.0000
     9 O3'         75.4570    25.7720   -16.2560 O.3          1 NHO361   0.0000
    10 C2'         76.1970    23.4050   -15.9990 C.3          1 NHO361   0.0000
    11 O2'         77.1190    23.8380   -17.0000 O.3          1 NHO361   0.0000
    12 C1'         76.8870    23.0310   -14.7070 C.3          1 NHO361   0.0000
    13 N9A         77.3410    21.6270   -14.7050 N.pl3        1 NHO361   0.0000
    14 C8A         76.5650    20.5190   -14.8900 C.2          1 NHO361   0.0000
    15 N7A         77.3100    19.4370   -14.8060 N.2          1 NHO361   0.0000
    16 C5A         78.5960    19.8770   -14.5610 C.ar         1 NHO361   0.0000
    17 C6A         79.8190    19.1290   -14.3800 C.ar         1 NHO361   0.0000
    18 N6A         79.7570    17.7730   -14.4520 N.pl3        1 NHO361   0.0000
    19 N1A         80.9770    19.8240   -14.1430 N.ar         1 NHO361   0.0000
    20 C2A         80.9290    21.2020   -14.0910 C.ar         1 NHO361   0.0000
    21 N3A         79.8420    21.9740   -14.2490 N.ar         1 NHO361   0.0000
    22 C4A         78.6500    21.2850   -14.4900 C.ar         1 NHO361   0.0000
    23 OPP         70.8620    25.0790   -12.6510 O.3          1 NHO361   0.0000
    24 PN          70.7920    26.1210   -11.4390 P.3          1 NHO361   0.0000
    25 O1N         69.5300    26.8720   -11.6630 O.co2        1 NHO361   0.0000
    26 O2N         71.9760    27.0250   -11.3480 O.co2        1 NHO361  -1.0000
    27 O5B         70.6330    25.1690   -10.1480 O.3          1 NHO361   0.0000
    28 C5B         71.7220    24.3550    -9.7320 C.3          1 NHO361   0.0000
    29 C4B         71.2770    23.4720    -8.5720 C.3          1 NHO361   0.0000
    30 O4B         70.5100    24.2600    -7.6470 O.3          1 NHO361   0.0000
    31 C3B         70.3700    22.3130    -8.9780 C.3          1 NHO361   0.0000
    32 O3B         70.8660    21.0800    -8.4380 O.3          1 NHO361   0.0000
    33 C2B         69.0320    22.7080    -8.4150 C.3          1 NHO361   0.0000
    34 O2B         68.2210    21.5570    -8.1660 O.3          1 NHO361   0.0000
    35 C1B         69.4180    23.4740    -7.1780 C.3          1 NHO361   0.0000
    36 N1N         68.3180    24.2980    -6.5820 N.pl3        1 NHO361   0.0000
    37 C2N         67.7350    25.3330    -7.3480 C.2          1 NHO361   0.0000
    38 C3N         66.7150    26.0820    -6.7870 C.2          1 NHO361   0.0000
    39 C7N         66.3630    27.4190    -7.3830 C.2          1 NHO361   0.0000
    40 O7N         65.4600    28.0420    -6.8410 O.2          1 NHO361   0.0000
    41 N7N         67.0260    27.9000    -8.4700 N.am         1 NHO361   0.0000
    42 C4N         65.9570    25.5400    -5.5210 C.3          1 NHO361   0.0000
    43 C5N         66.7370    24.4500    -4.7860 C.2          1 NHO361   0.0000
    44 C6N         67.9220    23.9680    -5.2560 C.2          1 NHO361   0.0000
    45 O5R         63.7980    24.7870    -4.6660 O.3          1 NHO361   0.0000
    46 C5R         64.5280    24.9780    -5.8840 C.3          1 NHO361   0.0000
    47 C4R         64.3240    23.7760    -6.8660 C.2          1 NHO361   0.0000
    48 O4R         65.2410    23.1020    -7.2770 O.2          1 NHO361   0.0000
    49 C3R         62.8800    23.4550    -7.2960 C.3          1 NHO361   0.0000
    50 C2R         62.2380    24.3770    -8.3800 C.3          1 NHO361   0.0000
    51 N1R         63.1410    25.4890    -8.7540 N.4          1 NHO361   1.0000
    52 C1R         60.8920    24.9230    -7.8890 C.2          1 NHO361   0.0000
    53 O1R         60.1170    24.3730    -7.0810 O.co2        1 NHO361   0.0000
    54 OR          60.6160    26.0300    -8.3900 O.co2        1 NHO361  -1.0000
    55 H5'1        74.4371    24.7876   -12.2898 H            1 NHO361   0.0000
    56 H5'2        74.2414    26.0889   -13.2567 H            1 NHO361   0.0000
    57 H4'         76.2400    25.2698   -13.9352 H            1 NHO361   0.0000
    58 H3'         74.2959    24.2248   -15.7442 H            1 NHO361   0.0000
    59 H5          76.4022    26.0654   -16.1128 H            1 NHO361   0.0000
    60 H2'         75.6748    22.6230   -16.3393 H            1 NHO361   0.0000
    61 H7          77.6606    24.6008   -16.6468 H            1 NHO361   0.0000
    62 H1'         77.6772    23.6293   -14.5744 H            1 NHO361   0.0000
    63 H8A         75.5801    20.5281   -15.0631 H            1 NHO361   0.0000
    64 H6A1        80.5863    17.2274   -14.3310 H            1 NHO361   0.0000
    65 H6A2        78.8821    17.3210   -14.6260 H            1 NHO361   0.0000
    66 H2A         81.7931    21.6745   -13.9177 H            1 NHO361   0.0000
    67 H5B1        72.4802    24.9366    -9.4373 H            1 NHO361   0.0000
    68 H5B2        72.0196    23.7802   -10.4943 H            1 NHO361   0.0000
    69 H4B         72.0842    23.1102    -8.1055 H            1 NHO361   0.0000
    70 H3B         70.3173    22.2530    -9.9748 H            1 NHO361   0.0000
    71 H17         70.2634    20.3301    -8.7112 H            1 NHO361   0.0000
    72 H2B         68.5641    23.3170    -9.0554 H            1 NHO361   0.0000
    73 H19         67.3390    21.8451    -7.7930 H            1 NHO361   0.0000
    74 H1B         69.7525    22.8312    -6.4888 H            1 NHO361   0.0000
    75 H2N         68.0533    25.5205    -8.2773 H            1 NHO361   0.0000
    76 H7N1        66.7790    28.7902    -8.8528 H            1 NHO361   0.0000
    77 H7N2        67.7601    27.3632    -8.8858 H            1 NHO361   0.0000
    78 H4N         65.8326    26.3050    -4.8891 H            1 NHO361   0.0000
    79 H5N         66.3665    24.0793    -3.9344 H            1 NHO361   0.0000
    80 H6N         68.5024    23.3930    -4.6794 H            1 NHO361   0.0000
    81 H5R         63.2971    25.6233    -4.4429 H            1 NHO361   0.0000
    82 H28         64.0669    25.7443    -6.3314 H            1 NHO361   0.0000
    83 H3R1        62.3047    23.5046    -6.4796 H            1 NHO361   0.0000
    84 H3R2        62.8727    22.5208    -7.6527 H            1 NHO361   0.0000
    85 H2R         62.0699    23.8253    -9.1969 H            1 NHO361   0.0000
    86 H1R1        62.9748    25.7478    -9.7055 H            1 NHO361   0.0000
    87 H1R2        62.9668    26.2742    -8.1597 H            1 NHO361   0.0000
    88 H1R3        64.0914    25.1962    -8.6494 H            1 NHO361   0.0000
@<TRIPOS>BOND
     1    1    2      ar
     2    1    3      ar
     3    1    4       1
     4    1   23       1
     5    4    5       1
     6    5    6       1
     7    6    7       1
     8    6    8       1
     9    7   12       1
    10    8    9       1
    11    8   10       1
    12   10   11       1
    13   10   12       1
    14   12   13       1
    15   13   14       1
    16   13   22       1
    17   14   15       2
    18   15   16       1
    19   16   17      ar
    20   16   22      ar
    21   17   18       1
    22   17   19      ar
    23   19   20      ar
    24   20   21      ar
    25   21   22      ar
    26   23   24       1
    27   24   25      ar
    28   24   26      ar
    29   24   27       1
    30   27   28       1
    31   28   29       1
    32   29   30       1
    33   29   31       1
    34   30   35       1
    35   31   32       1
    36   31   33       1
    37   33   34       1
    38   33   35       1
    39   35   36       1
    40   36   37       1
    41   36   44       1
    42   37   38       2
    43   38   39       1
    44   38   42       1
    45   39   40       2
    46   39   41      am
    47   42   43       1
    48   42   46       1
    49   43   44       2
    50   45   46       1
    51   46   47       1
    52   47   48       2
    53   47   49       1
    54   49   50       1
    55   50   51       1
    56   50   52       1
    57   52   53      ar
    58   52   54      ar
    59   51   88       1
    60    5   55       1
    61    5   56       1
    62    6   57       1
    63    8   58       1
    64    9   59       1
    65   10   60       1
    66   11   61       1
    67   12   62       1
    68   14   63       1
    69   18   64       1
    70   18   65       1
    71   20   66       1
    72   51   87       1
    73   28   67       1
    74   28   68       1
    75   29   69       1
    76   31   70       1
    77   32   71       1
    78   33   72       1
    79   34   73       1
    80   35   74       1
    81   37   75       1
    82   41   76       1
    83   41   77       1
    84   42   78       1
    85   43   79       1
    86   44   80       1
    87   45   81       1
    88   46   82       1
    89   49   83       1
    90   49   84       1
    91   50   85       1
    92   51   86       1
@<TRIPOS>SUBSTRUCTURE
     1 NHO361      1 GROUP             4 A     NHO     0 **** NHO A 361
