@<TRIPOS>MOLECULE
1b87_ACO_1_ligand
   85    87     1     0     0
SMALL
NO_CHARGES


@<TRIPOS>ATOM
     1 N1A         55.3680    26.6530    21.1960 N.ar         1 ACO200   0.0000
     2 C2A         54.8170    27.1800    20.1020 C.ar         1 ACO200   0.0000
     3 N3A         53.8670    28.0980    20.0200 N.ar         1 ACO200   0.0000
     4 C4A         53.4610    28.4870    21.2610 C.ar         1 ACO200   0.0000
     5 C5A         53.9290    28.0410    22.4630 C.ar         1 ACO200   0.0000
     6 C6A         54.9490    27.0550    22.4170 C.ar         1 ACO200   0.0000
     7 N6A         55.4990    26.5250    23.5120 N.pl3        1 ACO200   0.0000
     8 N7A         53.2700    28.6710    23.5120 N.2          1 ACO200   0.0000
     9 C8A         52.4370    29.4750    22.9140 C.2          1 ACO200   0.0000
    10 N9A         52.4990    29.4160    21.5480 N.pl3        1 ACO200   0.0000
    11 C1B         51.7230    30.1640    20.5650 C.3          1 ACO200   0.0000
    12 C2B         50.2280    29.9250    20.6960 C.3          1 ACO200   0.0000
    13 O2B         49.8680    28.7890    19.9070 O.3          1 ACO200   0.0000
    14 C3B         49.5690    31.1730    20.1240 C.3          1 ACO200   0.0000
    15 O3B         49.6680    31.1440    18.6870 O.3          1 ACO200   0.0000
    16 P3B         48.4120    31.5880    17.7590 P.3          1 ACO200   0.0000
    17 O7A         47.3410    30.6220    18.1250 O.co2        1 ACO200   0.0000
    18 O8A         48.9090    31.4500    16.3700 O.co2        1 ACO200  -1.0000
    19 O9A         48.1370    32.9890    18.1680 O.co2        1 ACO200  -1.0000
    20 C4B         50.5210    32.2530    20.6590 C.3          1 ACO200   0.0000
    21 O4B         51.7850    31.5850    20.7000 O.3          1 ACO200   0.0000
    22 C5B         50.1550    32.8210    22.0380 C.3          1 ACO200   0.0000
    23 O5B         49.9570    31.7470    22.9570 O.3          1 ACO200   0.0000
    24 P1A         49.5070    31.9780    24.4910 P.3          1 ACO200   0.0000
    25 O1A         48.1270    31.4690    24.6280 O.co2        1 ACO200   0.0000
    26 O2A         49.8160    33.3730    24.8580 O.co2        1 ACO200  -1.0000
    27 O3A         50.5290    30.9780    25.2530 O.3          1 ACO200   0.0000
    28 P2A         50.5180    30.6120    26.8100 P.3          1 ACO200   0.0000
    29 O4A         50.3540    29.1570    26.9330 O.co2        1 ACO200   0.0000
    30 O5A         49.5980    31.5240    27.5060 O.co2        1 ACO200  -1.0000
    31 O6A         52.0140    30.9980    27.2690 O.3          1 ACO200   0.0000
    32 CBP         54.1190    29.9260    27.6210 C.3          1 ACO200   0.0000
    33 CCP         53.1740    30.4970    26.5880 C.3          1 ACO200   0.0000
    34 CDP         55.3480    29.2950    26.9430 C.3          1 ACO200   0.0000
    35 CEP         54.5710    31.0440    28.5930 C.3          1 ACO200   0.0000
    36 CAP         53.3230    28.8630    28.3860 C.3          1 ACO200   0.0000
    37 OAP         52.8890    27.7920    27.5290 O.3          1 ACO200   0.0000
    38 C9P         54.1220    28.3850    29.5850 C.2          1 ACO200   0.0000
    39 O9P         54.0630    28.9980    30.6530 O.2          1 ACO200   0.0000
    40 N8P         54.8660    27.2960    29.4010 N.am         1 ACO200   0.0000
    41 C7P         55.6440    26.6440    30.4370 C.3          1 ACO200   0.0000
    42 C6P         56.8320    27.4910    30.8760 C.3          1 ACO200   0.0000
    43 C5P         57.8260    27.7550    29.7570 C.2          1 ACO200   0.0000
    44 O5P         58.1510    26.8410    28.9830 O.2          1 ACO200   0.0000
    45 N4P         58.3210    29.0030    29.6810 N.am         1 ACO200   0.0000
    46 C3P         59.5110    29.3410    28.9360 C.3          1 ACO200   0.0000
    47 C2P         59.9040    30.7900    29.1010 C.3          1 ACO200   0.0000
    48 S1P         61.6910    30.9640    29.0260 S.3          1 ACO200   0.0000
    49 C           62.0080    31.7470    30.6180 C.2          1 ACO200   0.0000
    50 O           62.2320    31.0660    31.6320 O.2          1 ACO200   0.0000
    51 CH3         61.9890    33.2640    30.7040 C.3          1 ACO200   0.0000
    52 H2A         55.1670    26.8371    19.2303 H            1 ACO200   0.0000
    53 H6A1        55.1929    26.8187    24.4175 H            1 ACO200   0.0000
    54 H6A2        56.2171    25.8343    23.4266 H            1 ACO200   0.0000
    55 H8A         51.8108    30.0789    23.4072 H            1 ACO200   0.0000
    56 H1B         52.0192    29.9065    19.6452 H            1 ACO200   0.0000
    57 H2B         49.9701    29.7915    21.6529 H            1 ACO200   0.0000
    58 H7          48.9279    28.8930    19.5824 H            1 ACO200   0.0000
    59 H3B         48.6293    31.2942    20.4437 H            1 ACO200   0.0000
    60 H4B         50.5688    33.0027    19.9989 H            1 ACO200   0.0000
    61 H5B1        49.3139    33.3570    21.9653 H            1 ACO200   0.0000
    62 H5B2        50.8965    33.4070    22.3647 H            1 ACO200   0.0000
    63 HCP1        53.6232    31.2406    26.0927 H            1 ACO200   0.0000
    64 HCP2        52.9052    29.7816    25.9431 H            1 ACO200   0.0000
    65 HDP1        55.9599    28.9236    27.6413 H            1 ACO200   0.0000
    66 HDP2        55.0517    28.5592    26.3340 H            1 ACO200   0.0000
    67 HDP3        55.8310    29.9921    26.4131 H            1 ACO200   0.0000
    68 HEP1        55.1955    30.6614    29.2739 H            1 ACO200   0.0000
    69 HEP2        55.0382    31.7636    28.0793 H            1 ACO200   0.0000
    70 HEP3        53.7711    31.4289    29.0534 H            1 ACO200   0.0000
    71 HAP         52.5006    29.3089    28.7393 H            1 ACO200   0.0000
    72 H21         51.9901    28.0118    27.1500 H            1 ACO200   0.0000
    73 H8P         54.8900    26.8995    28.4833 H            1 ACO200   0.0000
    74 H7P1        55.9821    25.7709    30.0858 H            1 ACO200   0.0000
    75 H7P2        55.0548    26.4794    31.2281 H            1 ACO200   0.0000
    76 H6P1        57.3061    27.0140    31.6161 H            1 ACO200   0.0000
    77 H6P2        56.4898    28.3690    31.2107 H            1 ACO200   0.0000
    78 H4P         57.8405    29.7343    30.1651 H            1 ACO200   0.0000
    79 H3P1        59.3440    29.1623    27.9664 H            1 ACO200   0.0000
    80 H3P2        60.2639    28.7660    29.2560 H            1 ACO200   0.0000
    81 H2P1        59.5771    31.1217    29.9859 H            1 ACO200   0.0000
    82 H2P2        59.4890    31.3298    28.3686 H            1 ACO200   0.0000
    83 HH31        62.1805    33.5470    31.6438 H            1 ACO200   0.0000
    84 HH32        62.6856    33.6412    30.0937 H            1 ACO200   0.0000
    85 HH33        61.0883    33.6021    30.4310 H            1 ACO200   0.0000
@<TRIPOS>BOND
     1    1    2      ar
     2    1    6      ar
     3    2    3      ar
     4    3    4      ar
     5    4    5      ar
     6    4   10       1
     7    5    6      ar
     8    5    8       1
     9    6    7       1
    10    8    9       2
    11    9   10       1
    12   10   11       1
    13   11   12       1
    14   11   21       1
    15   12   13       1
    16   12   14       1
    17   14   15       1
    18   14   20       1
    19   15   16       1
    20   16   17      ar
    21   16   18      ar
    22   16   19      ar
    23   20   21       1
    24   20   22       1
    25   22   23       1
    26   23   24       1
    27   24   25      ar
    28   24   26      ar
    29   24   27       1
    30   27   28       1
    31   28   29      ar
    32   28   30      ar
    33   28   31       1
    34   31   33       1
    35   32   33       1
    36   32   34       1
    37   32   35       1
    38   32   36       1
    39   36   37       1
    40   36   38       1
    41   38   39       2
    42   38   40      am
    43   40   41       1
    44   41   42       1
    45   42   43       1
    46   43   44       2
    47   43   45      am
    48   45   46       1
    49   46   47       1
    50   47   48       1
    51   48   49       1
    52   49   50       2
    53   49   51       1
    54    2   52       1
    55    7   53       1
    56    7   54       1
    57    9   55       1
    58   11   56       1
    59   12   57       1
    60   13   58       1
    61   14   59       1
    62   51   85       1
    63   51   84       1
    64   20   60       1
    65   22   61       1
    66   22   62       1
    67   51   83       1
    68   47   82       1
    69   33   63       1
    70   33   64       1
    71   34   65       1
    72   34   66       1
    73   34   67       1
    74   35   68       1
    75   35   69       1
    76   35   70       1
    77   36   71       1
    78   37   72       1
    79   40   73       1
    80   41   74       1
    81   41   75       1
    82   42   76       1
    83   42   77       1
    84   45   78       1
    85   46   79       1
    86   46   80       1
    87   47   81       1
@<TRIPOS>SUBSTRUCTURE
     1 ACO200      1 GROUP             4 A     ACO     0 **** ACO A 200
