@<TRIPOS>MOLECULE
2yx6_ADP_1_ligand
   39    41     1     0     0
SMALL
NO_CHARGES


@<TRIPOS>ATOM
     1 PB         -41.3150    30.4900    13.6060 P.3          1 ADP1001   0.0000
     2 O1B        -41.9660    31.3150    12.3230 O.co2        1 ADP1001   0.0000
     3 O2B        -39.9310    29.7910    13.0990 O.co2        1 ADP1001  -1.0000
     4 O3B        -41.0120    31.3450    14.7840 O.co2        1 ADP1001  -1.0000
     5 PA         -42.1880    27.8160    13.6780 P.3          1 ADP1001   0.0000
     6 O1A        -41.1840    27.5920    12.6100 O.co2        1 ADP1001   0.0000
     7 O2A        -43.4940    27.1220    13.6050 O.co2        1 ADP1001  -1.0000
     8 O3A        -42.4720    29.3770    13.8670 O.3          1 ADP1001   0.0000
     9 O5'        -41.4670    27.5070    15.0910 O.3          1 ADP1001   0.0000
    10 C5'        -40.0460    27.6190    15.2590 C.3          1 ADP1001   0.0000
    11 C4'        -39.6400    27.3970    16.7270 C.3          1 ADP1001   0.0000
    12 O4'        -38.2170    27.1270    16.9560 O.3          1 ADP1001   0.0000
    13 C3'        -39.9270    28.7700    17.3160 C.3          1 ADP1001   0.0000
    14 O3'        -40.1330    28.6560    18.7290 O.3          1 ADP1001   0.0000
    15 C2'        -38.6230    29.4590    16.9950 C.3          1 ADP1001   0.0000
    16 O2'        -38.4880    30.6210    17.7790 O.3          1 ADP1001   0.0000
    17 C1'        -37.5860    28.3490    17.3510 C.3          1 ADP1001   0.0000
    18 N9         -36.4720    28.6710    16.4830 N.pl3        1 ADP1001   0.0000
    19 C8         -36.4690    28.7670    15.1530 C.2          1 ADP1001   0.0000
    20 N7         -35.2360    29.0620    14.7070 N.2          1 ADP1001   0.0000
    21 C5         -34.4500    29.1650    15.7650 C.ar         1 ADP1001   0.0000
    22 C6         -33.1020    29.4800    15.9370 C.ar         1 ADP1001   0.0000
    23 N6         -32.2590    29.7700    14.9300 N.pl3        1 ADP1001   0.0000
    24 N1         -32.6310    29.4870    17.1640 N.ar         1 ADP1001   0.0000
    25 C2         -33.4110    29.2360    18.2130 C.ar         1 ADP1001   0.0000
    26 N3         -34.6890    28.9260    18.0810 N.ar         1 ADP1001   0.0000
    27 C4         -35.2440    28.9240    16.8790 C.ar         1 ADP1001   0.0000
    28 H5'1       -39.7549    28.5324    14.9746 H            1 ADP1001   0.0000
    29 H5'2       -39.5950    26.9327    14.6884 H            1 ADP1001   0.0000
    30 H4'        -40.2113    26.6967    17.1550 H            1 ADP1001   0.0000
    31 H3'        -40.7010    29.2127    16.8634 H            1 ADP1001   0.0000
    32 H5         -41.1033    28.4989    18.9128 H            1 ADP1001   0.0000
    33 H2'        -38.5755    29.6846    16.0219 H            1 ADP1001   0.0000
    34 H7         -37.6223    31.0716    17.5608 H            1 ADP1001   0.0000
    35 H1'        -37.3334    28.3555    18.3185 H            1 ADP1001   0.0000
    36 H9         -37.2710    28.6377    14.5698 H            1 ADP1001   0.0000
    37 H10        -31.3027    29.9874    15.1254 H            1 ADP1001   0.0000
    38 H11        -32.5885    29.7683    13.9859 H            1 ADP1001   0.0000
    39 H12        -33.0172    29.2835    19.1309 H            1 ADP1001   0.0000
@<TRIPOS>BOND
     1    1    2      ar
     2    1    3      ar
     3    1    4      ar
     4    1    8       1
     5    5    6      ar
     6    5    7      ar
     7    5    8       1
     8    5    9       1
     9    9   10       1
    10   10   11       1
    11   11   12       1
    12   11   13       1
    13   12   17       1
    14   13   14       1
    15   13   15       1
    16   15   16       1
    17   15   17       1
    18   17   18       1
    19   18   19       1
    20   18   27       1
    21   19   20       2
    22   20   21       1
    23   21   22      ar
    24   21   27      ar
    25   22   23       1
    26   22   24      ar
    27   24   25      ar
    28   25   26      ar
    29   26   27      ar
    30   25   39       1
    31   23   38       1
    32   23   37       1
    33   10   28       1
    34   10   29       1
    35   11   30       1
    36   13   31       1
    37   14   32       1
    38   15   33       1
    39   16   34       1
    40   17   35       1
    41   19   36       1
@<TRIPOS>SUBSTRUCTURE
     1 ADP1001     1 GROUP             4 C     ADP     0 **** ADP C1001
