@<TRIPOS>MOLECULE
4bls_APC_2_ligand
   46    48     1     0     0
SMALL
NO_CHARGES


@<TRIPOS>ATOM
     1 PG          65.1920    49.5590    25.2090 P.3          1 APC400   0.0000
     2 O1G         63.9400    50.3970    25.1860 O.co2        1 APC400   0.0000
     3 O2G         65.1910    48.3570    24.2940 O.co2        1 APC400  -1.0000
     4 O3G         66.4720    50.3680    25.1640 O.co2        1 APC400  -1.0000
     5 PB          65.2360    49.8160    27.9880 P.3          1 APC400   0.0000
     6 O1B         65.8210    49.0530    29.1150 O.co2        1 APC400   0.0000
     7 O2B         66.1600    51.1010    27.6780 O.co2        1 APC400  -1.0000
     8 O3B         65.1470    48.8920    26.6770 O.3          1 APC400   0.0000
     9 PA          63.7220    51.9070    29.3770 P.3          1 APC400   0.0000
    10 O1A         62.2690    52.5180    29.6600 O.co2        1 APC400   0.0000
    11 O2A         64.4500    52.8920    28.5490 O.co2        1 APC400  -1.0000
    12 C3A         63.5710    50.3520    28.4640 C.3          1 APC400   0.0000
    13 O5'         64.5210    51.6110    30.7470 O.3          1 APC400   0.0000
    14 C5'         65.7590    52.2620    31.0400 C.3          1 APC400   0.0000
    15 C4'         65.4650    53.6730    31.5420 C.3          1 APC400   0.0000
    16 O4'         65.5430    53.7190    32.9710 O.3          1 APC400   0.0000
    17 C3'         66.4310    54.7250    31.0130 C.3          1 APC400   0.0000
    18 O3'         65.8400    55.4360    29.9180 O.3          1 APC400   0.0000
    19 C2'         66.7250    55.6280    32.1980 C.3          1 APC400   0.0000
    20 O2'         66.2610    56.9610    31.9780 O.3          1 APC400   0.0000
    21 C1'         65.9910    55.0150    33.3830 C.3          1 APC400   0.0000
    22 N9          66.8720    54.9390    34.5790 N.pl3        1 APC400   0.0000
    23 C8          67.5010    53.8460    35.0490 C.2          1 APC400   0.0000
    24 N7          68.2210    54.1400    36.1630 N.2          1 APC400   1.0000
    25 C5          68.0560    55.4470    36.4240 C.ar         1 APC400   0.0000
    26 C6          68.5310    56.4080    37.4480 C.ar         1 APC400   0.0000
    27 N6          69.3520    56.0240    38.4530 N.pl3        1 APC400   0.0000
    28 N1          68.1120    57.6880    37.3430 N.ar         1 APC400   0.0000
    29 C2          67.2900    58.1040    36.3560 C.ar         1 APC400   0.0000
    30 N3          66.8250    57.2810    35.3940 N.ar         1 APC400   0.0000
    31 C4          67.1650    55.9690    35.3740 C.ar         1 APC400   0.0000
    32 H3A1        63.1443    49.6582    29.0441 H            1 APC400   0.0000
    33 H3A2        63.0129    50.4918    27.6461 H            1 APC400   0.0000
    34 H5'1        66.3181    52.3093    30.2123 H            1 APC400   0.0000
    35 H5'2        66.2497    51.7498    31.7449 H            1 APC400   0.0000
    36 H4'         64.5374    53.9235    31.2649 H            1 APC400   0.0000
    37 H3'         67.2754    54.2833    30.7099 H            1 APC400   0.0000
    38 H7          65.2047    54.8343    29.4339 H            1 APC400   0.0000
    39 H2'         67.7085    55.6384    32.3787 H            1 APC400   0.0000
    40 H9          65.8334    57.0205    31.0760 H            1 APC400   0.0000
    41 H1'         65.1953    55.5803    33.6005 H            1 APC400   0.0000
    42 H11         67.4458    52.9381    34.6335 H            1 APC400   0.0000
    43 H12         69.6583    56.6919    39.1313 H            1 APC400   0.0000
    44 H13         69.6524    55.0724    38.5173 H            1 APC400   0.0000
    45 H14         67.0137    59.0649    36.3374 H            1 APC400   0.0000
    46 H15         68.7746    53.4982    36.6936 H            1 APC400   0.0000
@<TRIPOS>BOND
     1    1    2      ar
     2    1    3      ar
     3    1    4      ar
     4    1    8       1
     5    5    6      ar
     6    5    7      ar
     7    5    8       1
     8    5   12       1
     9    9   10      ar
    10    9   11      ar
    11    9   12       1
    12    9   13       1
    13   13   14       1
    14   14   15       1
    15   15   16       1
    16   15   17       1
    17   16   21       1
    18   17   18       1
    19   17   19       1
    20   19   20       1
    21   19   21       1
    22   21   22       1
    23   22   23       1
    24   22   31       1
    25   23   24       2
    26   24   25       1
    27   25   26      ar
    28   25   31      ar
    29   26   27       1
    30   26   28      ar
    31   28   29      ar
    32   29   30      ar
    33   30   31      ar
    34   29   45       1
    35   27   44       1
    36   27   43       1
    37   23   42       1
    38   12   32       1
    39   12   33       1
    40   14   34       1
    41   14   35       1
    42   15   36       1
    43   17   37       1
    44   18   38       1
    45   19   39       1
    46   20   40       1
    47   21   41       1
    48   24   46       1
@<TRIPOS>SUBSTRUCTURE
     1 APC400      1 GROUP             4 B     APC     0 **** APC B 400
