@<TRIPOS>MOLECULE
1php_ADP_1_ligand
   39    41     1     0     0
SMALL
NO_CHARGES


@<TRIPOS>ATOM
     1 PB          44.6690     2.9280    38.5560 P.3          1 ADP396   0.0000
     2 O1B         46.0210     3.5080    38.3170 O.co2        1 ADP396   0.0000
     3 O2B         43.7090     3.8120    37.9050 O.co2        1 ADP396  -1.0000
     4 O3B         44.4590     1.4490    38.3820 O.co2        1 ADP396  -1.0000
     5 PA          43.2300     2.9550    41.1100 P.3          1 ADP396   0.0000
     6 O1A         41.9750     3.4970    40.5730 O.co2        1 ADP396   0.0000
     7 O2A         42.9620     1.5010    41.4010 O.co2        1 ADP396  -1.0000
     8 O3A         44.5220     3.2100    40.2120 O.3          1 ADP396   0.0000
     9 O5'         43.4620     3.8320    42.4070 O.3          1 ADP396   0.0000
    10 C5'         43.7350     5.2460    42.3350 C.3          1 ADP396   0.0000
    11 C4'         43.0950     5.8100    43.6260 C.3          1 ADP396   0.0000
    12 O4'         43.7640     5.2610    44.7790 O.3          1 ADP396   0.0000
    13 C3'         43.3370     7.3250    43.6170 C.3          1 ADP396   0.0000
    14 O3'         42.0560     7.9880    43.5600 O.3          1 ADP396   0.0000
    15 C2'         43.9460     7.5930    45.0830 C.3          1 ADP396   0.0000
    16 O2'         43.5540     8.7260    45.8770 O.3          1 ADP396   0.0000
    17 C1'         43.6130     6.2750    45.8130 C.3          1 ADP396   0.0000
    18 N9          44.3750     5.7810    46.9910 N.pl3        1 ADP396   0.0000
    19 C8          45.7110     5.4860    47.0620 C.2          1 ADP396   0.0000
    20 N7          46.2020     5.3790    48.2820 N.2          1 ADP396   0.0000
    21 C5          45.0670     5.5970    49.0640 C.ar         1 ADP396   0.0000
    22 C6          44.8830     5.6230    50.4990 C.ar         1 ADP396   0.0000
    23 N6          45.9120     5.4330    51.3250 N.pl3        1 ADP396   0.0000
    24 N1          43.6260     5.8520    50.8960 N.ar         1 ADP396   0.0000
    25 C2          42.5900     6.0760    50.0670 C.ar         1 ADP396   0.0000
    26 N3          42.6750     6.0670    48.7350 N.ar         1 ADP396   0.0000
    27 C4          43.9510     5.8210    48.3040 C.ar         1 ADP396   0.0000
    28 H5'1        43.3139     5.6495    41.5227 H            1 ADP396   0.0000
    29 H5'2        44.7199     5.4186    42.3205 H            1 ADP396   0.0000
    30 H4'         42.1161     5.6075    43.6542 H            1 ADP396   0.0000
    31 H3'         43.9536     7.6130    42.8843 H            1 ADP396   0.0000
    32 H5          42.1933     8.9785    43.5533 H            1 ADP396   0.0000
    33 H2'         44.9405     7.6321    44.9857 H            1 ADP396   0.0000
    34 H7          43.7749     9.5691    45.3867 H            1 ADP396   0.0000
    35 H1'         42.6467     6.3058    46.0684 H            1 ADP396   0.0000
    36 H9          46.2749     5.3605    46.2458 H            1 ADP396   0.0000
    37 H10         45.7693     5.4538    52.3145 H            1 ADP396   0.0000
    38 H11         46.8266     5.2697    50.9551 H            1 ADP396   0.0000
    39 H12         41.6967     6.2616    50.4763 H            1 ADP396   0.0000
@<TRIPOS>BOND
     1    1    2      ar
     2    1    3      ar
     3    1    4      ar
     4    1    8       1
     5    5    6      ar
     6    5    7      ar
     7    5    8       1
     8    5    9       1
     9    9   10       1
    10   10   11       1
    11   11   12       1
    12   11   13       1
    13   12   17       1
    14   13   14       1
    15   13   15       1
    16   15   16       1
    17   15   17       1
    18   17   18       1
    19   18   19       1
    20   18   27       1
    21   19   20       2
    22   20   21       1
    23   21   22      ar
    24   21   27      ar
    25   22   23       1
    26   22   24      ar
    27   24   25      ar
    28   25   26      ar
    29   26   27      ar
    30   25   39       1
    31   23   38       1
    32   23   37       1
    33   10   28       1
    34   10   29       1
    35   11   30       1
    36   13   31       1
    37   14   32       1
    38   15   33       1
    39   16   34       1
    40   17   35       1
    41   19   36       1
@<TRIPOS>SUBSTRUCTURE
     1 ADP396      1 GROUP             4 A     ADP     0 **** ADP A 396
