@<TRIPOS>MOLECULE
./coach420/2fa0/ligand.pdb
 58 60 0 0 0
SMALL
GASTEIGER

@<TRIPOS>ATOM
      1  P2A       39.6380    3.2480   13.5170 P.3   500  HMG500      0.2188
      2  O5A       40.5060    3.3290   14.7660 O.3   500  HMG500     -0.4371
      3  O4A       40.0700    3.9980   12.2760 O.2   500  HMG500     -0.5170
      4  O3A       39.2400    1.7000   13.1730 O.3   500  HMG500     -0.2703
      5  O6A       38.1860    3.8480   13.9070 O.3   500  HMG500     -0.3138
      6  P1A       40.1650    0.3580   12.9820 P.3   500  HMG500      0.2189
      7  O1A       39.9550   -0.4770   14.2470 O.3   500  HMG500     -0.4371
      8  O2A       41.5880    0.6480   12.5020 O.2   500  HMG500     -0.5170
      9  O5B       39.3940   -0.3260   11.7290 O.3   500  HMG500     -0.3112
     10  C5B       38.5420    0.5660   10.9970 C.3   500  HMG500      0.1812
     11  C4B       37.6030   -0.0910    9.9860 C.3   500  HMG500      0.1775
     12  O4B       37.7760    0.5400    8.7170 O.3   500  HMG500     -0.3307
     13  C3B       37.8760   -1.5570    9.6970 C.3   500  HMG500      0.1904
     14  O3B       36.6550   -1.9830    9.0930 O.3   500  HMG500     -0.2674
     15  C2B       38.9770   -1.4470    8.6600 C.3   500  HMG500      0.2310
     16  O2B       39.1850   -2.6540    7.9320 O.3   500  HMG500     -0.2156
     17  C1B       38.3460   -0.3880    7.7970 C.3   500  HMG500      0.2408
     18  P3B       36.2060   -3.4970    8.8410 P.3   500  HMG500      0.5327
     19  O7A       37.0860   -4.0230    7.7340 O.2   500  HMG500     -0.2224
     20  O8A       34.7790   -3.3230    8.4280 O.3   500  HMG500     -0.1145
     21  O9A       36.3950   -4.2070   10.1600 O.3   500  HMG500     -0.1145
     22  N9A       39.2620    0.3840    6.9540 N.ar  500  HMG500     -0.2693
     23  C4A       38.9880    0.6530    5.6810 C.ar  500  HMG500      0.1692
     24  N3A       37.9480    0.3160    4.8840 N.ar  500  HMG500     -0.2048
     25  C2A       37.9020    0.7270    3.6170 C.ar  500  HMG500      0.2016
     26  N1A       38.8990    1.4660    3.1300 N.ar  500  HMG500     -0.2040
     27  C6A       39.9700    1.8210    3.8810 C.ar  500  HMG500      0.1919
     28  C5A       40.0300    1.4070    5.2000 C.ar  500  HMG500      0.1518
     29  N7A       40.9140    1.5690    6.2000 N.ar  500  HMG500     -0.2193
     30  C8A       40.4310    0.9430    7.2950 C.ar  500  HMG500      0.1816
     31  N6A       40.9670    2.5650    3.3530 N.pl3 500  HMG500     -0.1054
     32  CBP       36.5970    3.2050   15.6640 C.3   500  HMG500      0.0645
     33  CCP       37.0500    3.0190   14.2150 C.3   500  HMG500      0.1519
     34  CDP       35.2180    2.5980   15.8740 C.3   500  HMG500      0.0056
     35  CEP       37.5950    2.4860   16.5730 C.3   500  HMG500      0.0056
     36  CAP       36.5110    4.7040   15.9910 C.3   500  HMG500      0.2312
     37  OAP       35.8100    5.3790   14.9440 O.3   500  HMG500     -0.2131
     38  C9P       35.8520    5.0020   17.3170 C.2   500  HMG500      0.2719
     39  O9P       36.3820    4.5700   18.3270 O.2   500  HMG500     -0.2706
     40  N8P       34.7170    5.7230   17.2990 N.am  500  HMG500     -0.2028
     41  C7P       33.8410    6.2340   18.3530 C.3   500  HMG500      0.1248
     42  C6P       33.2800    5.1430   19.2680 C.3   500  HMG500      0.1102
     43  C5P       32.1970    4.3120   18.6040 C.2   500  HMG500      0.2432
     44  O5P       31.3550    4.8350   17.8840 O.2   500  HMG500     -0.2733
     45  N4P       32.2690    3.0050   18.9060 N.am  500  HMG500     -0.2044
     46  C3P       31.5290    1.8000   18.5170 C.3   500  HMG500      0.1272
     47  C2P       30.0320    2.0320   18.6340 C.3   500  HMG500      0.0883
     48  S1P       29.7040    2.2400   20.3380 S.3   500  HMG500     -0.0752
     49  C1        28.3560    3.1610   20.6890 C.2   500  HMG500      0.2013
     50  O2        27.4840    3.3520   19.8760 O.2   500  HMG500     -0.2844
     51  C2        28.2070    3.7450   22.0550 C.3   500  HMG500      0.1064
     52  C3        28.1710    5.2610   22.0320 C.3   500  HMG500      0.1421
     53  O7        26.9370    5.7640   21.4410 O.3   500  HMG500     -0.2249
     54  C4        28.1900    5.6220   23.4990 C.3   500  HMG500      0.1306
     55  C5        26.7100    5.7620   23.7750 C.3   500  HMG500      0.4284
     56  O3        26.1470    5.0180   24.8490 O.2   500  HMG500     -0.2670
     57  O4        26.3540    7.1300   23.8080 O.2   500  HMG500     -0.2670
     58  C6        29.3750    5.8940   21.3330 C.3   500  HMG500      0.0337
@<TRIPOS>BOND
     1     1     3    2
     2     1     4    1
     3     1     5    1
     4     1     2    1
     5     4     6    1
     6     5    33    1
     7     6     9    1
     8     6     8    2
     9     6     7    1
    10     9    10    1
    11    10    11    1
    12    11    12    1
    13    11    13    1
    14    12    17    1
    15    13    15    1
    16    13    14    1
    17    14    18    1
    18    15    17    1
    19    15    16    1
    20    17    22    1
    21    18    19    2
    22    18    20    1
    23    18    21    1
    24    22    23   ar
    25    22    30   ar
    26    23    24   ar
    27    23    28   ar
    28    24    25   ar
    29    25    26   ar
    30    26    27   ar
    31    27    31    1
    32    27    28   ar
    33    28    29   ar
    34    29    30   ar
    35    32    33    1
    36    32    34    1
    37    32    36    1
    38    32    35    1
    39    36    37    1
    40    36    38    1
    41    38    40   am
    42    38    39    2
    43    40    41    1
    44    41    42    1
    45    42    43    1
    46    43    44    2
    47    43    45   am
    48    45    46    1
    49    46    47    1
    50    47    48    1
    51    48    49    1
    52    49    50    2
    53    49    51    1
    54    51    52    1
    55    52    58    1
    56    52    53    1
    57    52    54    1
    58    54    55    1
    59    55    57    1
    60    55    56    1
