@<TRIPOS>MOLECULE
1wkl_ATP_2_ligand
   43    45     1     0     0
SMALL
NO_CHARGES


@<TRIPOS>ATOM
     1 PG           7.5800    52.3680    73.0810 P.3          1 ATP856   0.0000
     2 O1G          6.0890    52.3410    73.0040 O.co2        1 ATP856   0.0000
     3 O2G          8.2150    51.1060    72.4620 O.co2        1 ATP856  -1.0000
     4 O3G          8.0760    53.6130    72.3530 O.co2        1 ATP856  -1.0000
     5 PB           7.3420    53.4900    75.6760 P.3          1 ATP856   0.0000
     6 O1B          5.9080    53.5000    75.3590 O.co2        1 ATP856   0.0000
     7 O2B          7.9790    54.8660    75.7360 O.co2        1 ATP856  -1.0000
     8 O3B          8.0420    52.5420    74.6250 O.3          1 ATP856   0.0000
     9 PA           7.0430    51.2530    77.4920 P.3          1 ATP856   0.0000
    10 O1A          8.1650    50.6110    78.2130 O.co2        1 ATP856   0.0000
    11 O2A          5.7940    51.3540    78.3530 O.co2        1 ATP856  -1.0000
    12 O3A          7.5330    52.6990    77.0540 O.3          1 ATP856   0.0000
    13 O5'          6.7740    50.4930    76.1030 O.3          1 ATP856   0.0000
    14 C5'          5.4400    50.2420    75.6980 C.3          1 ATP856   0.0000
    15 C4'          5.3740    49.0290    74.7650 C.3          1 ATP856   0.0000
    16 O4'          4.3410    48.1770    75.2230 O.3          1 ATP856   0.0000
    17 C3'          5.0300    49.4470    73.3610 C.3          1 ATP856   0.0000
    18 O3'          5.8230    48.6570    72.4740 O.3          1 ATP856   0.0000
    19 C2'          3.5130    49.2050    73.2870 C.3          1 ATP856   0.0000
    20 O2'          2.9130    49.0150    72.0470 O.3          1 ATP856   0.0000
    21 C1'          3.3430    48.0200    74.2030 C.3          1 ATP856   0.0000
    22 N9           2.0610    47.8830    74.9770 N.pl3        1 ATP856   0.0000
    23 C8           1.8550    48.3230    76.2740 C.2          1 ATP856   0.0000
    24 N7           0.6130    48.0270    76.5980 N.2          1 ATP856   0.0000
    25 C5          -0.0310    47.4060    75.5790 C.ar         1 ATP856   0.0000
    26 C6          -1.3090    46.8760    75.3240 C.ar         1 ATP856   0.0000
    27 N6          -2.3300    46.8810    76.1540 N.pl3        1 ATP856   0.0000
    28 N1          -1.5800    46.2950    74.0940 N.ar         1 ATP856   0.0000
    29 C2          -0.6260    46.2270    73.1050 C.ar         1 ATP856   0.0000
    30 N3           0.6330    46.7440    73.3240 N.ar         1 ATP856   0.0000
    31 C4           0.9150    47.3200    74.5370 C.ar         1 ATP856   0.0000
    32 H5'1         5.0867    51.0447    75.2176 H            1 ATP856   0.0000
    33 H5'2         4.8797    50.0642    76.5070 H            1 ATP856   0.0000
    34 H4'          6.2478    48.5428    74.7732 H            1 ATP856   0.0000
    35 H3'          5.2310    50.4179    73.2312 H            1 ATP856   0.0000
    36 H5           6.6884    49.1247    72.2944 H            1 ATP856   0.0000
    37 H2'          3.0635    49.9859    73.7208 H            1 ATP856   0.0000
    38 H7           2.2248    49.7250    71.8974 H            1 ATP856   0.0000
    39 H1'          3.5166    47.1772    73.6936 H            1 ATP856   0.0000
    40 H9           2.5258    48.7811    76.8572 H            1 ATP856   0.0000
    41 H10         -3.2016    46.4767    75.8769 H            1 ATP856   0.0000
    42 H11         -2.2343    47.2891    77.0619 H            1 ATP856   0.0000
    43 H12         -0.8460    45.8023    72.2268 H            1 ATP856   0.0000
@<TRIPOS>BOND
     1    1    2      ar
     2    1    3      ar
     3    1    4      ar
     4    1    8       1
     5    5    6      ar
     6    5    7      ar
     7    5    8       1
     8    5   12       1
     9    9   10      ar
    10    9   11      ar
    11    9   12       1
    12    9   13       1
    13   13   14       1
    14   14   15       1
    15   15   16       1
    16   15   17       1
    17   16   21       1
    18   17   18       1
    19   17   19       1
    20   19   20       1
    21   19   21       1
    22   21   22       1
    23   22   23       1
    24   22   31       1
    25   23   24       2
    26   24   25       1
    27   25   26      ar
    28   25   31      ar
    29   26   27       1
    30   26   28      ar
    31   28   29      ar
    32   29   30      ar
    33   30   31      ar
    34   29   43       1
    35   27   42       1
    36   27   41       1
    37   23   40       1
    38   14   32       1
    39   14   33       1
    40   15   34       1
    41   17   35       1
    42   18   36       1
    43   19   37       1
    44   20   38       1
    45   21   39       1
@<TRIPOS>SUBSTRUCTURE
     1 ATP856      1 GROUP             4 B     ATP     0 **** ATP B 856
