@<TRIPOS>MOLECULE
4cdm_FAD_2_ligand
   84    89     1     0     0
SMALL
NO_CHARGES


@<TRIPOS>ATOM
     1 PA          24.3380    23.5150    95.0400 P.3          1 FAD1463   0.0000
     2 O1A         23.6790    24.2460    93.8930 O.co2        1 FAD1463   0.0000
     3 O2A         25.6610    22.8840    94.6660 O.co2        1 FAD1463  -1.0000
     4 O5B         23.4360    22.3650    95.7020 O.3          1 FAD1463   0.0000
     5 C5B         22.0240    22.4580    95.7150 C.3          1 FAD1463   0.0000
     6 C4B         21.4910    22.0790    97.0900 C.3          1 FAD1463   0.0000
     7 O4B         22.0110    20.8430    97.5900 O.3          1 FAD1463   0.0000
     8 C3B         21.8430    23.1430    98.1270 C.3          1 FAD1463   0.0000
     9 O3B         20.9050    24.1850    98.1240 O.3          1 FAD1463   0.0000
    10 C2B         21.8480    22.3690    99.4300 C.3          1 FAD1463   0.0000
    11 O2B         20.5670    22.3480   100.0140 O.3          1 FAD1463   0.0000
    12 C1B         22.2080    20.9590    98.9970 C.3          1 FAD1463   0.0000
    13 N9A         23.6280    20.8160    99.3090 N.pl3        1 FAD1463   0.0000
    14 C8A         24.6930    21.0760    98.4720 C.2          1 FAD1463   0.0000
    15 N7A         25.8420    20.8080    99.1440 N.2          1 FAD1463   0.0000
    16 C5A         25.5170    20.3960   100.3910 C.ar         1 FAD1463   0.0000
    17 C6A         26.2880    20.0050   101.4650 C.ar         1 FAD1463   0.0000
    18 N6A         27.6040    19.9980   101.3620 N.pl3        1 FAD1463   0.0000
    19 N1A         25.6770    19.6300   102.6400 N.ar         1 FAD1463   0.0000
    20 C2A         24.2960    19.6520   102.7380 C.ar         1 FAD1463   0.0000
    21 N3A         23.5200    20.0350   101.6620 N.ar         1 FAD1463   0.0000
    22 C4A         24.1280    20.4000   100.5100 C.ar         1 FAD1463   0.0000
    23 N1          24.1950    24.4640   103.5700 N.2          1 FAD1463   0.0000
    24 C2          23.0370    25.1200   103.9310 C.2          1 FAD1463   0.0000
    25 O2          21.9980    24.9150   103.3140 O.2          1 FAD1463   0.0000
    26 N3          23.0460    26.0020   104.9950 N.pl3        1 FAD1463   0.0000
    27 C4          24.2210    26.2300   105.7050 C.2          1 FAD1463   0.0000
    28 O4          24.2120    27.0310   106.6440 O.2          1 FAD1463   0.0000
    29 C4X         25.3990    25.5650   105.3370 C.2          1 FAD1463   0.0000
    30 N5          26.5820    25.8010   106.0210 N.2          1 FAD1463   0.0000
    31 C5X         27.7350    25.1190   105.6580 C.ar         1 FAD1463   0.0000
    32 C6          28.9200    25.3420   106.3660 C.ar         1 FAD1463   0.0000
    33 C7          30.0930    24.6750   106.0020 C.ar         1 FAD1463   0.0000
    34 C7M         31.3740    24.9070   106.7470 C.3          1 FAD1463   0.0000
    35 C8          30.0720    23.7770   104.9410 C.ar         1 FAD1463   0.0000
    36 C8M         31.3190    23.0460   104.5300 C.3          1 FAD1463   0.0000
    37 C9          28.8840    23.5610   104.2460 C.ar         1 FAD1463   0.0000
    38 C9A         27.7140    24.2220   104.5850 C.ar         1 FAD1463   0.0000
    39 N10         26.5340    23.9970   103.8720 N.pl3        1 FAD1463   0.0000
    40 C10         25.3760    24.6650   104.2620 C.2          1 FAD1463   0.0000
    41 C1'         26.4760    23.0320   102.7090 C.3          1 FAD1463   0.0000
    42 C2'         26.7500    23.6840   101.3440 C.3          1 FAD1463   0.0000
    43 O2'         27.9750    24.3810   101.4270 O.3          1 FAD1463   0.0000
    44 C3'         25.6430    24.6300   100.8190 C.3          1 FAD1463   0.0000
    45 O3'         24.3510    24.0830   101.0050 O.3          1 FAD1463   0.0000
    46 C4'         25.7380    25.0170    99.3390 C.3          1 FAD1463   0.0000
    47 O4'         26.9610    25.6860    99.0670 O.3          1 FAD1463   0.0000
    48 C5'         24.5430    25.9070    98.9730 C.3          1 FAD1463   0.0000
    49 O5'         24.7080    26.5400    97.7190 O.3          1 FAD1463   0.0000
    50 P           23.9780    26.0310    96.3810 P.3          1 FAD1463   0.0000
    51 O1P         22.4980    26.0570    96.5850 O.co2        1 FAD1463   0.0000
    52 O2P         24.3550    26.8570    95.1890 O.co2        1 FAD1463  -1.0000
    53 O3P         24.5510    24.5490    96.2580 O.3          1 FAD1463   0.0000
    54 H5B1        21.6447    21.8364    95.0297 H            1 FAD1463   0.0000
    55 H5B2        21.7517    23.3962    95.5011 H            1 FAD1463   0.0000
    56 H4B         20.4952    22.0058    97.0355 H            1 FAD1463   0.0000
    57 H3B         22.7563    23.5070    97.9442 H            1 FAD1463   0.0000
    58 H5          21.1941    24.8919    97.4784 H            1 FAD1463   0.0000
    59 H2B         22.5279    22.7360   100.0649 H            1 FAD1463   0.0000
    60 H7          20.6550    22.2967   101.0088 H            1 FAD1463   0.0000
    61 H1B         21.6628    20.2823    99.4918 H            1 FAD1463   0.0000
    62 H8A         24.6297    21.4059    97.5301 H            1 FAD1463   0.0000
    63 H6A1        28.1649    19.7147   102.1399 H            1 FAD1463   0.0000
    64 H6A2        28.0400    20.2760   100.5061 H            1 FAD1463   0.0000
    65 H2A         23.8563    19.3879   103.5964 H            1 FAD1463   0.0000
    66 H13         22.2058    26.4777   105.2554 H            1 FAD1463   0.0000
    67 H14         28.9282    25.9808   107.1353 H            1 FAD1463   0.0000
    68 H7M1        32.0989    24.3469   106.3461 H            1 FAD1463   0.0000
    69 H7M2        31.6258    25.8728   106.6844 H            1 FAD1463   0.0000
    70 H7M3        31.2513    24.6561   107.7072 H            1 FAD1463   0.0000
    71 H8M1        31.1147    22.4478   103.7551 H            1 FAD1463   0.0000
    72 H8M2        32.0208    23.7071   104.2648 H            1 FAD1463   0.0000
    73 H8M3        31.6513    22.4966   105.2966 H            1 FAD1463   0.0000
    74 H21         28.8753    22.9133   103.4841 H            1 FAD1463   0.0000
    75 H1'1        25.5640    22.6225   102.6849 H            1 FAD1463   0.0000
    76 H1'2        27.1587    22.3168   102.8590 H            1 FAD1463   0.0000
    77 H2'         26.8638    22.9497   100.6747 H            1 FAD1463   0.0000
    78 H25         28.7239    23.7707   101.1688 H            1 FAD1463   0.0000
    79 H3'         25.6913    25.4739   101.3534 H            1 FAD1463   0.0000
    80 H27         24.1928    23.9258   101.9798 H            1 FAD1463   0.0000
    81 H4'         25.6985    24.1842    98.7868 H            1 FAD1463   0.0000
    82 H29         27.6679    25.3557    99.6925 H            1 FAD1463   0.0000
    83 H5'1        24.4384    26.6099    99.6765 H            1 FAD1463   0.0000
    84 H5'2        23.7188    25.3415    98.9416 H            1 FAD1463   0.0000
@<TRIPOS>BOND
     1    1    2      ar
     2    1    3      ar
     3    1    4       1
     4    1   53       1
     5    4    5       1
     6    5    6       1
     7    6    7       1
     8    6    8       1
     9    7   12       1
    10    8    9       1
    11    8   10       1
    12   10   11       1
    13   10   12       1
    14   12   13       1
    15   13   14       1
    16   13   22       1
    17   14   15       2
    18   15   16       1
    19   16   17      ar
    20   16   22      ar
    21   17   18       1
    22   17   19      ar
    23   19   20      ar
    24   20   21      ar
    25   21   22      ar
    26   23   24       1
    27   23   40       2
    28   24   25       2
    29   24   26       1
    30   26   27       1
    31   27   28       2
    32   27   29       1
    33   29   30       2
    34   29   40       1
    35   30   31       1
    36   31   32      ar
    37   31   38      ar
    38   32   33      ar
    39   33   34       1
    40   33   35      ar
    41   35   36       1
    42   35   37      ar
    43   37   38      ar
    44   38   39       1
    45   39   40       1
    46   39   41       1
    47   41   42       1
    48   42   43       1
    49   42   44       1
    50   44   45       1
    51   44   46       1
    52   46   47       1
    53   46   48       1
    54   48   49       1
    55   49   50       1
    56   50   51      ar
    57   50   52      ar
    58   50   53       1
    59   48   84       1
    60    5   54       1
    61    5   55       1
    62    6   56       1
    63    8   57       1
    64    9   58       1
    65   10   59       1
    66   11   60       1
    67   12   61       1
    68   14   62       1
    69   18   63       1
    70   18   64       1
    71   20   65       1
    72   26   66       1
    73   32   67       1
    74   34   68       1
    75   34   69       1
    76   34   70       1
    77   36   71       1
    78   36   72       1
    79   36   73       1
    80   37   74       1
    81   41   75       1
    82   41   76       1
    83   42   77       1
    84   43   78       1
    85   44   79       1
    86   45   80       1
    87   46   81       1
    88   47   82       1
    89   48   83       1
@<TRIPOS>SUBSTRUCTURE
     1 FAD1463     1 GROUP             4 A     FAD     0 **** FAD A1463
