@<TRIPOS>MOLECULE
3q30_D61_1_ligand
   83    86     1     0     0
SMALL
NO_CHARGES


@<TRIPOS>ATOM
     1 C1          22.7870     1.7000    53.3040 C.ar         1 D61700   0.0000
     2 C2          21.5630     1.8240    54.0040 C.ar         1 D61700   0.0000
     3 C3          20.7270     0.7160    54.2340 C.ar         1 D61700   0.0000
     4 C4          21.1160    -0.5660    53.7660 C.ar         1 D61700   0.0000
     5 C5          22.3570    -0.6900    53.0550 C.ar         1 D61700   0.0000
     6 C6          23.1870     0.4520    52.8380 C.ar         1 D61700   0.0000
     7 C7          22.7650    -1.9540    52.5600 C.ar         1 D61700   0.0000
     8 C8          21.9730    -3.0810    52.7660 C.ar         1 D61700   0.0000
     9 C9          20.7510    -2.9760    53.4490 C.ar         1 D61700   0.0000
    10 C10         20.3070    -1.7230    53.9590 C.ar         1 D61700   0.0000
    11 C11         19.9540    -4.2650    53.6540 C.3          1 D61700   0.0000
    12 C12         20.5800    -5.0500    54.8330 C.3          1 D61700   0.0000
    13 C13         19.6660    -6.2260    55.2390 C.3          1 D61700   0.0000
    14 C14         19.5530    -6.3830    56.7800 C.3          1 D61700   0.0000
    15 C15         18.4650    -7.4020    57.1930 C.3          1 D61700   0.0000
    16 N16         18.5210    -8.5930    56.3040 N.am         1 D61700   0.0000
    17 C17         17.4760    -8.9400    55.5320 C.2          1 D61700   0.0000
    18 O18         16.4500    -8.2650    55.4320 O.2          1 D61700   0.0000
    19 C19         17.5320   -10.2650    54.7760 C.3          1 D61700   0.0000
    20 O20         16.7570   -10.1420    53.5480 O.3          1 D61700   0.0000
    21 C21         17.4190   -10.1090    52.2720 C.3          1 D61700   0.0000
    22 C22         16.5350    -9.6010    51.1280 C.3          1 D61700   0.0000
    23 C23         15.4460    -8.5490    51.4960 C.3          1 D61700   0.0000
    24 C24         16.0270    -7.1200    51.6340 C.3          1 D61700   0.0000
    25 C25         14.9660    -6.1180    52.0490 C.3          1 D61700   0.0000
    26 C26         15.4180    -4.6900    52.3980 C.ar         1 D61700   0.0000
    27 C27         15.9600    -4.3870    53.6560 C.ar         1 D61700   0.0000
    28 C28         16.3370    -3.0810    53.9720 C.ar         1 D61700   0.0000
    29 C29         16.1390    -2.0710    53.0220 C.ar         1 D61700   0.0000
    30 C30         15.5860    -2.3830    51.7300 C.ar         1 D61700   0.0000
    31 C31         15.2340    -3.6850    51.4340 C.ar         1 D61700   0.0000
    32 C32         15.4010    -1.3770    50.7800 C.ar         1 D61700   0.0000
    33 C33         15.7530    -0.0670    51.0880 C.ar         1 D61700   0.0000
    34 C34         16.2810     0.2300    52.3430 C.ar         1 D61700   0.0000
    35 C35         16.4800    -0.7520    53.3020 C.ar         1 D61700   0.0000
    36 C36         16.8470   -11.3620    55.6270 C.3          1 D61700   0.0000
    37 O37         15.4560   -10.9410    55.8730 O.3          1 D61700   0.0000
    38 C38         14.9650   -10.6330    57.2280 C.3          1 D61700   0.0000
    39 C39         13.4430   -10.7890    57.3870 C.2          1 D61700   0.0000
    40 O40         12.8880   -10.1720    58.3430 O.co2        1 D61700   0.0000
    41 O41         12.8200   -11.5140    56.5450 O.co2        1 D61700  -1.0000
    42 C42         16.9700   -12.6910    54.8510 C.2          1 D61700   0.0000
    43 O43         15.9280   -13.2960    54.4770 O.co2        1 D61700   0.0000
    44 O44         18.1400   -13.0950    54.5880 O.co2        1 D61700  -1.0000
    45 H1          23.3601     2.5040    53.1456 H            1 D61700   0.0000
    46 H2          21.2852     2.7225    54.3439 H            1 D61700   0.0000
    47 H3          19.8633     0.8312    54.7246 H            1 D61700   0.0000
    48 H4          24.0551     0.3543    52.3514 H            1 D61700   0.0000
    49 H5          23.6269    -2.0371    52.0597 H            1 D61700   0.0000
    50 H6          22.2768    -3.9707    52.4252 H            1 D61700   0.0000
    51 H7          19.4369    -1.6557    54.4473 H            1 D61700   0.0000
    52 H8          19.9906    -4.8196    52.8227 H            1 D61700   0.0000
    53 H9          19.0021    -4.0427    53.8648 H            1 D61700   0.0000
    54 H10         20.6945    -4.4363    55.6142 H            1 D61700   0.0000
    55 H11         21.4722    -5.4062    54.5554 H            1 D61700   0.0000
    56 H12         20.0405    -7.0707    54.8567 H            1 D61700   0.0000
    57 H13         18.7525    -6.0669    54.8645 H            1 D61700   0.0000
    58 H14         19.3269    -5.4936    57.1773 H            1 D61700   0.0000
    59 H15         20.4345    -6.6928    57.1363 H            1 D61700   0.0000
    60 H16         17.5644    -6.9740    57.1172 H            1 D61700   0.0000
    61 H17         18.6200    -7.6871    58.1389 H            1 D61700   0.0000
    62 H18         19.3530    -9.1473    56.2798 H            1 D61700   0.0000
    63 H19         18.4785   -10.5156    54.5725 H            1 D61700   0.0000
    64 H20         17.7204   -11.0361    52.0494 H            1 D61700   0.0000
    65 H21         18.2151    -9.5083    52.3456 H            1 D61700   0.0000
    66 H22         16.0696   -10.3921    50.7310 H            1 D61700   0.0000
    67 H23         17.1348    -9.1885    50.4424 H            1 D61700   0.0000
    68 H24         15.0277    -8.8108    52.3658 H            1 D61700   0.0000
    69 H25         14.7490    -8.5443    50.7790 H            1 D61700   0.0000
    70 H26         16.4101    -6.8399    50.7538 H            1 D61700   0.0000
    71 H27         16.7504    -7.1300    52.3243 H            1 D61700   0.0000
    72 H28         14.5055    -6.4894    52.8552 H            1 D61700   0.0000
    73 H29         14.3129    -6.0472    51.2951 H            1 D61700   0.0000
    74 H30         16.0773    -5.1138    54.3328 H            1 D61700   0.0000
    75 H31         16.7417    -2.8698    54.8617 H            1 D61700   0.0000
    76 H32         14.8503    -3.9111    50.5386 H            1 D61700   0.0000
    77 H33         15.0175    -1.5969    49.8830 H            1 D61700   0.0000
    78 H34         15.6277     0.6588    50.4116 H            1 D61700   0.0000
    79 H35         16.5228     1.1762    52.5578 H            1 D61700   0.0000
    80 H36         16.8675    -0.5124    54.1922 H            1 D61700   0.0000
    81 H37         17.3247   -11.4462    56.5015 H            1 D61700   0.0000
    82 H38         15.2094    -9.6878    57.4447 H            1 D61700   0.0000
    83 H39         15.4144   -11.2500    57.8740 H            1 D61700   0.0000
@<TRIPOS>BOND
     1    1    2      ar
     2    1    6      ar
     3    2    3      ar
     4    3    4      ar
     5    4    5      ar
     6    4   10      ar
     7    5    6      ar
     8    5    7      ar
     9    7    8      ar
    10    8    9      ar
    11    9   10      ar
    12    9   11       1
    13   11   12       1
    14   12   13       1
    15   13   14       1
    16   14   15       1
    17   15   16       1
    18   16   17      am
    19   17   18       2
    20   17   19       1
    21   19   20       1
    22   19   36       1
    23   20   21       1
    24   21   22       1
    25   22   23       1
    26   23   24       1
    27   24   25       1
    28   25   26       1
    29   26   27      ar
    30   26   31      ar
    31   27   28      ar
    32   28   29      ar
    33   29   30      ar
    34   29   35      ar
    35   30   31      ar
    36   30   32      ar
    37   32   33      ar
    38   33   34      ar
    39   34   35      ar
    40   36   37       1
    41   36   42       1
    42   37   38       1
    43   38   39       1
    44   39   40      ar
    45   39   41      ar
    46   42   43      ar
    47   42   44      ar
    48    1   45       1
    49    2   46       1
    50    3   47       1
    51    6   48       1
    52    7   49       1
    53    8   50       1
    54   10   51       1
    55   11   52       1
    56   11   53       1
    57   12   54       1
    58   12   55       1
    59   13   56       1
    60   13   57       1
    61   14   58       1
    62   14   59       1
    63   15   60       1
    64   15   61       1
    65   16   62       1
    66   19   63       1
    67   21   64       1
    68   21   65       1
    69   22   66       1
    70   22   67       1
    71   23   68       1
    72   23   69       1
    73   24   70       1
    74   24   71       1
    75   25   72       1
    76   25   73       1
    77   27   74       1
    78   28   75       1
    79   31   76       1
    80   32   77       1
    81   33   78       1
    82   34   79       1
    83   35   80       1
    84   36   81       1
    85   38   82       1
    86   38   83       1
@<TRIPOS>SUBSTRUCTURE
     1 D61700      1 GROUP             4 A     D61     0 **** D61 A 700
