@<TRIPOS>MOLECULE
7at1_PCT_2_ligand
   12    11     1     0     0
SMALL
NO_CHARGES


@<TRIPOS>ATOM
     1 P           68.3460    49.8250    64.0240 P.3          1 PCT311   0.0000
     2 O1P         67.6160    49.5130    62.7030 O.co2        1 PCT311   0.0000
     3 O2P         69.5780    48.8560    64.2890 O.co2        1 PCT311  -1.0000
     4 O3P         67.3540    49.8170    65.2240 O.co2        1 PCT311  -1.0000
     5 C1P         69.1290    51.4790    63.8270 C.3          1 PCT311   0.0000
     6 C1          68.5440    52.5820    64.6650 C.2          1 PCT311   0.0000
     7 O1          67.3310    52.6750    64.8700 O.2          1 PCT311   0.0000
     8 N1          69.3830    53.4900    65.1520 N.am         1 PCT311   0.0000
     9 H1P1        69.0459    51.7457    62.8668 H            1 PCT311   0.0000
    10 H1P2        70.0960    51.3915    64.0662 H            1 PCT311   0.0000
    11 H3          69.0361    54.2406    65.7144 H            1 PCT311   0.0000
    12 H4          70.3613    53.4228    64.9561 H            1 PCT311   0.0000
@<TRIPOS>BOND
     1    1    2      ar
     2    1    3      ar
     3    1    4      ar
     4    1    5       1
     5    5    6       1
     6    6    7       2
     7    6    8      am
     8    8   12       1
     9    8   11       1
    10    5    9       1
    11    5   10       1
@<TRIPOS>SUBSTRUCTURE
     1 PCT311      1 GROUP             4 C     PCT     0 **** PCT C 311
