@<TRIPOS>MOLECULE
./coach420/1pfk/ligand.pdb
 98 95 0 0 0
SMALL
GASTEIGER

@<TRIPOS>ATOM
      1  P1         4.8290   22.2600    7.7710 P.3   323  FBP323      0.5328
      2  O1P        5.5060   20.9680    8.0200 O.3   323  FBP323     -0.1145
      3  O2P        5.8330   23.3380    7.6910 O.2   323  FBP323     -0.2224
      4  O3P        3.8440   22.5780    8.8430 O.3   323  FBP323     -0.1145
      5  O1         4.0430   22.1490    6.3950 O.3   323  FBP323     -0.2648
      6  C1         3.2600   21.0020    6.0890 C.3   323  FBP323      0.2152
      7  C2         1.8810   21.4740    5.6100 C.3   323  FBP323      0.2780
      8  O2         1.0570   20.3400    5.3310 O.3   323  FBP323     -0.1897
      9  C3         1.9560   22.4260    4.4020 C.3   323  FBP323      0.2408
     10  O3         2.1970   21.7670    3.1780 O.3   323  FBP323     -0.2149
     11  C4         0.5680   23.0450    4.4180 C.3   323  FBP323      0.2167
     12  O4         0.5600   24.3520    3.8510 O.3   323  FBP323     -0.2175
     13  C5         0.3260   23.1620    5.9270 C.3   323  FBP323      0.1808
     14  O5         1.2270   22.2680    6.6280 O.3   323  FBP323     -0.3255
     15  C6        -1.1060   22.8460    6.2940 C.3   323  FBP323      0.1859
     16  O6        -1.3390   23.4220    7.5770 O.3   323  FBP323     -0.2675
     17  P2        -2.3470   22.6880    8.5640 P.3   323  FBP323      0.5327
     18  O4P       -2.2820   23.3680    9.8630 O.3   323  FBP323     -0.1145
     19  O5P       -3.6970   22.7570    7.9660 O.2   323  FBP323     -0.2224
     20  O6P       -1.9040   21.2870    8.7430 O.3   323  FBP323     -0.1145
     21  O1B        7.8980   23.4210   12.3790 O.3   324  ADP324      0.0000
     22  O2B        7.5370   24.0610   10.0840 O.3   324  ADP324      0.0000
     23  O3B        6.1650   22.2560   11.0510 O.3   324  ADP324      0.0000
     24  PA         5.4590   25.9700   12.3170 P.3   324  ADP324      0.5327
     25  O1A        6.0220   27.0480   11.4530 O.2   324  ADP324     -0.2224
     26  O2A        4.0080   26.2400   12.5100 O.3   324  ADP324     -0.1145
     27  O3A        5.7210   24.5110   11.7230 O.3   324  ADP324     -0.1145
     28  O5'        6.2100   25.9750   13.7120 O.3   324  ADP324     -0.2675
     29  C5'        5.9880   25.0840   14.8280 C.3   324  ADP324      0.1859
     30  C4'        6.1730   25.7500   16.1670 C.3   324  ADP324      0.1803
     31  O4'        7.5230   26.2710   16.3910 O.3   324  ADP324     -0.3306
     32  C3'        5.2890   26.9840   16.4270 C.3   324  ADP324      0.2161
     33  O3'        3.9410   26.6220   16.6070 O.3   324  ADP324     -0.2175
     34  C2'        5.9710   27.5060   17.6960 C.3   324  ADP324      0.2337
     35  O2'        5.6550   26.7440   18.8460 O.3   324  ADP324     -0.2155
     36  C1'        7.4570   27.3510   17.3070 C.3   324  ADP324      0.2409
     37  N9         7.9620   28.5730   16.6640 N.ar  324  ADP324     -0.2693
     38  C8         7.7480   28.9900   15.3740 C.ar  324  ADP324      0.1816
     39  N7         8.3110   30.1520   15.1120 N.ar  324  ADP324     -0.2193
     40  C5         8.9230   30.5170   16.2890 C.ar  324  ADP324      0.1518
     41  C6         9.6780   31.6500   16.6520 C.ar  324  ADP324      0.1919
     42  N6         9.9580   32.6500   15.8270 N.pl3 324  ADP324     -0.1054
     43  N1        10.1540   31.6940   17.9190 N.ar  324  ADP324     -0.2040
     44  C2         9.8600   30.6660   18.7710 C.ar  324  ADP324      0.2016
     45  N3         9.1640   29.5920   18.5440 N.ar  324  ADP324     -0.2048
     46  C4         8.7180   29.5630   17.2660 C.ar  324  ADP324      0.1692
     47  O1B        3.0060    9.3970  -20.7380 O.3   326  ADP326      0.0000
     48  O2B        2.9100   11.7660  -20.1760 O.3   326  ADP326      0.0000
     49  O3B        4.6500   10.9790  -21.7150 O.3   326  ADP326      0.0000
     50  PA         2.0330   12.2500  -23.4210 P.3   326  ADP326      0.5327
     51  O1A        2.1950   13.5200  -22.6930 O.3   326  ADP326     -0.1145
     52  O2A        2.8850   12.2230  -24.6200 O.2   326  ADP326     -0.2224
     53  O3A        2.3320   10.9780  -22.4910 O.3   326  ADP326     -0.1145
     54  O5'        0.4920   12.0400  -23.7650 O.3   326  ADP326     -0.2675
     55  C5'       -0.5440   12.1020  -22.7460 C.3   326  ADP326      0.1859
     56  C4'       -1.6480   11.1040  -23.0380 C.3   326  ADP326      0.1803
     57  O4'       -2.1540   11.2950  -24.3960 O.3   326  ADP326     -0.3306
     58  C3'       -1.2700    9.6230  -22.9440 C.3   326  ADP326      0.2161
     59  O3'       -2.3610    8.8040  -22.5360 O.3   326  ADP326     -0.2175
     60  C2'       -0.9260    9.2840  -24.3970 C.3   326  ADP326      0.2337
     61  O2'       -1.0770    7.9000  -24.6550 O.3   326  ADP326     -0.2155
     62  C1'       -1.9640   10.1260  -25.1590 C.3   326  ADP326      0.2409
     63  N9        -1.5030   10.5000  -26.5010 N.ar  326  ADP326     -0.2693
     64  C8        -0.4280   11.2610  -26.8520 C.ar  326  ADP326      0.1816
     65  N7        -0.2820   11.4060  -28.1660 N.ar  326  ADP326     -0.2193
     66  C5        -1.3230   10.6750  -28.6820 C.ar  326  ADP326      0.1518
     67  C6        -1.7180   10.4310  -30.0170 C.ar  326  ADP326      0.1919
     68  N6        -1.0610   10.9260  -31.0650 N.pl3 326  ADP326     -0.1054
     69  N1        -2.8190    9.6560  -30.1950 N.ar  326  ADP326     -0.2040
     70  C2        -3.4640    9.1690  -29.0940 C.ar  326  ADP326      0.2016
     71  N3        -3.1900    9.3340  -27.8330 N.ar  326  ADP326     -0.2048
     72  C4        -2.0920   10.1070  -27.6850 C.ar  326  ADP326      0.1692
     73  O1B        9.6120   -2.2880   15.6370 O.3   326  ADP326      0.0000
     74  O2B       11.2760   -3.9430   14.8510 O.3   326  ADP326      0.0000
     75  O3B       11.9560   -2.2570   16.4320 O.3   326  ADP326      0.0000
     76  PA        11.4620   -5.0090   18.0940 P.3   326  ADP326      0.5327
     77  O1A       12.5050   -5.6110   17.2310 O.2   326  ADP326     -0.2224
     78  O2A       12.0830   -4.3620   19.2750 O.3   326  ADP326     -0.1145
     79  O3A       10.5140   -4.0150   17.2560 O.3   326  ADP326     -0.1145
     80  O5'       10.4200   -6.1130   18.5800 O.3   326  ADP326     -0.2675
     81  C5'       10.0270   -7.2520   17.7510 C.3   326  ADP326      0.1859
     82  C4'        8.5360   -7.4680   17.9320 C.3   326  ADP326      0.1803
     83  O4'        8.3100   -7.8980   19.3080 O.3   326  ADP326     -0.3306
     84  C3'        7.6220   -6.2490   17.7300 C.3   326  ADP326      0.2161
     85  O3'        6.4100   -6.6480   17.1050 O.3   326  ADP326     -0.2175
     86  C2'        7.4190   -5.7180   19.1480 C.3   326  ADP326      0.2337
     87  O2'        6.2410   -4.9840   19.4340 O.3   326  ADP326     -0.2155
     88  C1'        7.4830   -6.9900   20.0030 C.3   326  ADP326      0.2409
     89  N9         8.0840   -6.7640   21.3280 N.ar  326  ADP326     -0.2693
     90  C8         9.3100   -6.2860   21.6790 C.ar  326  ADP326      0.1816
     91  N7         9.4960   -6.2340   22.9950 N.ar  326  ADP326     -0.2193
     92  C5         8.3120   -6.6870   23.5250 C.ar  326  ADP326      0.1518
     93  C6         7.8580   -6.8640   24.8490 C.ar  326  ADP326      0.1919
     94  N6         8.5590   -6.6000   25.9390 N.pl3 326  ADP326     -0.1054
     95  N1         6.6020   -7.3460   25.0090 N.ar  326  ADP326     -0.2040
     96  C2         5.8470   -7.6260   23.8970 C.ar  326  ADP326      0.2016
     97  N3         6.1550   -7.5000   22.6400 N.ar  326  ADP326     -0.2048
     98  C4         7.4230   -7.0220   22.5160 C.ar  326  ADP326      0.1692
@<TRIPOS>BOND
     1     1     5    1
     2     1     3    2
     3     1     2    1
     4     1     4    1
     5     5     6    1
     6     6     7    1
     7     7     9    1
     8     7     8    1
     9     7    14    1
    10     9    10    1
    11     9    11    1
    12    11    12    1
    13    11    13    1
    14    13    15    1
    15    13    14    1
    16    15    16    1
    17    16    17    1
    18    17    19    2
    19    17    20    1
    20    17    18    1
    21    24    25    2
    22    24    27    1
    23    24    26    1
    24    24    28    1
    25    28    29    1
    26    29    30    1
    27    30    31    1
    28    30    32    1
    29    31    36    1
    30    32    33    1
    31    32    34    1
    32    34    36    1
    33    34    35    1
    34    36    37    1
    35    37    38   ar
    36    37    46   ar
    37    38    39   ar
    38    39    40   ar
    39    40    41   ar
    40    40    46   ar
    41    41    42    1
    42    41    43   ar
    43    43    44   ar
    44    44    45   ar
    45    45    46   ar
    46    50    52    2
    47    50    54    1
    48    50    51    1
    49    50    53    1
    50    54    55    1
    51    55    56    1
    52    56    57    1
    53    56    58    1
    54    57    62    1
    55    58    60    1
    56    58    59    1
    57    60    62    1
    58    60    61    1
    59    62    63    1
    60    63    72   ar
    61    63    64   ar
    62    64    65   ar
    63    65    66   ar
    64    66    67   ar
    65    66    72   ar
    66    67    68    1
    67    67    69   ar
    68    69    70   ar
    69    70    71   ar
    70    71    72   ar
    71    76    77    2
    72    76    79    1
    73    76    80    1
    74    76    78    1
    75    80    81    1
    76    81    82    1
    77    82    84    1
    78    82    83    1
    79    83    88    1
    80    84    85    1
    81    84    86    1
    82    86    87    1
    83    86    88    1
    84    88    89    1
    85    89    90   ar
    86    89    98   ar
    87    90    91   ar
    88    91    92   ar
    89    92    98   ar
    90    92    93   ar
    91    93    95   ar
    92    93    94    1
    93    95    96   ar
    94    96    97   ar
    95    97    98   ar
