@<TRIPOS>MOLECULE
1cq7_PY5_1_ligand
   42    42     1     0     0
SMALL
NO_CHARGES


@<TRIPOS>ATOM
     1 N1          26.6910     3.7390   -15.1030 N.ar         1 PY5413   1.0000
     2 C2          26.4040     4.8670   -15.8340 C.ar         1 PY5413   0.0000
     3 C2A         27.1130     4.7940   -17.1700 C.3          1 PY5413   0.0000
     4 C3          25.5410     5.8720   -15.2470 C.ar         1 PY5413   0.0000
     5 O3          25.3570     6.9120   -16.0960 O.3          1 PY5413   0.0000
     6 C4          24.9650     5.7550   -13.9740 C.ar         1 PY5413   0.0000
     7 C4A         24.0540     6.8460   -13.3830 C.3          1 PY5413   0.0000
     8 C5          25.3560     4.5240   -13.3250 C.ar         1 PY5413   0.0000
     9 C6          26.1760     3.5380   -13.8610 C.ar         1 PY5413   0.0000
    10 C5A         24.8670     4.1260   -11.9270 C.3          1 PY5413   0.0000
    11 O4P         23.6660     4.6350   -11.5060 O.3          1 PY5413   0.0000
    12 P           22.7700     3.9770   -10.3960 P.3          1 PY5413   0.0000
    13 O1P         22.2830     2.7040   -10.8020 O.co2        1 PY5413   0.0000
    14 O2P         21.8500     5.0840    -9.9480 O.co2        1 PY5413  -1.0000
    15 O3P         23.7280     3.6560    -9.2860 O.co2        1 PY5413  -1.0000
    16 N           24.5220     8.1510   -14.0480 N.3          1 PY5413   0.0000
    17 CA          23.4470     9.2210   -13.9680 C.3          1 PY5413   0.0000
    18 C           23.9370    10.5050   -14.6380 C.2          1 PY5413   0.0000
    19 O           24.5770    10.2430   -15.7950 O.co2        1 PY5413   0.0000
    20 CB          23.0610     9.4870   -12.5180 C.3          1 PY5413   0.0000
    21 CG          24.2000     9.9650   -11.6310 C.3          1 PY5413   0.0000
    22 CD          23.8750     9.8710   -10.1520 C.3          1 PY5413   0.0000
    23 OXT         23.7600    11.6990   -14.1550 O.co2        1 PY5413  -1.0000
    24 H2A1        26.9050     5.6142   -17.7030 H            1 PY5413   0.0000
    25 H2A2        28.1000     4.7348   -17.0208 H            1 PY5413   0.0000
    26 H2A3        26.8021     3.9848   -17.6686 H            1 PY5413   0.0000
    27 H4          24.7816     7.6835   -15.8243 H            1 PY5413   0.0000
    28 H4A1        24.1641     6.8973   -12.3904 H            1 PY5413   0.0000
    29 H4A2        23.0960     6.6623   -13.6031 H            1 PY5413   0.0000
    30 H7          26.3813     2.7047   -13.3478 H            1 PY5413   0.0000
    31 H5A1        25.5628     4.4201   -11.2717 H            1 PY5413   0.0000
    32 H5A2        24.7922     3.1290   -11.9088 H            1 PY5413   0.0000
    33 HA          22.6380     8.8959   -14.4577 H            1 PY5413   0.0000
    34 HB1         22.7011     8.6379   -12.1313 H            1 PY5413   0.0000
    35 HB2         22.3462    10.1862   -12.5099 H            1 PY5413   0.0000
    36 HG1         24.3994    10.9192   -11.8540 H            1 PY5413   0.0000
    37 HG2         25.0065     9.4037   -11.8169 H            1 PY5413   0.0000
    38 HD1         24.6552    10.1966    -9.6179 H            1 PY5413   0.0000
    39 HD2         23.0742    10.4350    -9.9502 H            1 PY5413   0.0000
    40 HD3         23.6813     8.9195    -9.9131 H            1 PY5413   0.0000
    41 H18         25.3441     8.4784   -13.5822 H            1 PY5413   0.0000
    42 H19         27.2959     3.0464   -15.4959 H            1 PY5413   0.0000
@<TRIPOS>BOND
     1    1    2      ar
     2    1    9      ar
     3    2    3       1
     4    2    4      ar
     5    4    5       1
     6    4    6      ar
     7    6    7       1
     8    6    8      ar
     9    7   16       1
    10    8    9      ar
    11    8   10       1
    12   10   11       1
    13   11   12       1
    14   12   13      ar
    15   12   14      ar
    16   12   15      ar
    17   16   17       1
    18   17   18       1
    19   17   20       1
    20   18   19      ar
    21   18   23      ar
    22   20   21       1
    23   21   22       1
    24    3   24       1
    25    3   25       1
    26    3   26       1
    27    5   27       1
    28    7   28       1
    29    7   29       1
    30    9   30       1
    31   10   31       1
    32   10   32       1
    33   22   40       1
    34   22   39       1
    35    1   42       1
    36   17   33       1
    37   16   41       1
    38   20   34       1
    39   20   35       1
    40   21   36       1
    41   21   37       1
    42   22   38       1
@<TRIPOS>SUBSTRUCTURE
     1 PY5413      1 GROUP             4 A     PY5     0 **** PY5 A 413
