@<TRIPOS>MOLECULE
3chw_ATP_1_ligand
   43    45     1     0     0
SMALL
NO_CHARGES


@<TRIPOS>ATOM
     1 PG           6.8970   -18.3430   -26.4850 P.3          1 ATP402   0.0000
     2 O1G          7.6710   -19.4830   -25.8550 O.co2        1 ATP402   0.0000
     3 O2G          6.1810   -17.5160   -25.4990 O.co2        1 ATP402  -1.0000
     4 O3G          7.6830   -17.5220   -27.4880 O.co2        1 ATP402  -1.0000
     5 PB           4.2460   -18.9030   -27.6670 P.3          1 ATP402   0.0000
     6 O1B          4.0430   -19.4390   -29.0630 O.co2        1 ATP402   0.0000
     7 O2B          3.7960   -17.5290   -27.2320 O.co2        1 ATP402  -1.0000
     8 O3B          5.8330   -19.1020   -27.4530 O.3          1 ATP402   0.0000
     9 PA           2.1490   -19.9850   -26.0020 P.3          1 ATP402   0.0000
    10 O1A          1.2110   -19.5820   -27.0870 O.co2        1 ATP402   0.0000
    11 O2A          1.9870   -19.1830   -24.7430 O.co2        1 ATP402  -1.0000
    12 O3A          3.6650   -19.9570   -26.5800 O.3          1 ATP402   0.0000
    13 O5'          2.0340   -21.5520   -25.6340 O.3          1 ATP402   0.0000
    14 C5'          2.3680   -22.5970   -26.5540 C.3          1 ATP402   0.0000
    15 C4'          2.7660   -23.8520   -25.7780 C.3          1 ATP402   0.0000
    16 O4'          1.7710   -24.1610   -24.7920 O.3          1 ATP402   0.0000
    17 C3'          2.8620   -25.0720   -26.6770 C.3          1 ATP402   0.0000
    18 O3'          4.0680   -25.7710   -26.3220 O.3          1 ATP402   0.0000
    19 C2'          1.6100   -25.8860   -26.3580 C.3          1 ATP402   0.0000
    20 O2'          1.7230   -27.3070   -26.5880 O.3          1 ATP402   0.0000
    21 C1'          1.4360   -25.5500   -24.8880 C.3          1 ATP402   0.0000
    22 N9           0.0610   -25.7550   -24.3760 N.pl3        1 ATP402   0.0000
    23 C8          -1.0730   -25.1940   -24.8480 C.2          1 ATP402   0.0000
    24 N7          -2.1510   -25.6030   -24.1320 N.2          1 ATP402   0.0000
    25 C5          -1.6930   -26.4390   -23.1770 C.ar         1 ATP402   0.0000
    26 C6          -2.3110   -27.2110   -22.0820 C.ar         1 ATP402   0.0000
    27 N6          -3.6690   -27.1490   -21.8990 N.pl3        1 ATP402   0.0000
    28 N1          -1.4830   -27.9470   -21.3000 N.ar         1 ATP402   0.0000
    29 C2          -0.1610   -27.9980   -21.5100 C.ar         1 ATP402   0.0000
    30 N3           0.4660   -27.3160   -22.4970 N.ar         1 ATP402   0.0000
    31 C4          -0.2410   -26.5280   -23.3360 C.ar         1 ATP402   0.0000
    32 H5'1         3.1325   -22.3038   -27.1281 H            1 ATP402   0.0000
    33 H5'2         1.5764   -22.7989   -27.1307 H            1 ATP402   0.0000
    34 H4'          3.6457   -23.7001   -25.3274 H            1 ATP402   0.0000
    35 H3'          2.8764   -24.8040   -27.6403 H            1 ATP402   0.0000
    36 H5           4.6712   -25.8205   -27.1180 H            1 ATP402   0.0000
    37 H2'          0.8355   -25.5244   -26.8770 H            1 ATP402   0.0000
    38 H7           0.8271   -27.6772   -26.8334 H            1 ATP402   0.0000
    39 H1'          2.0795   -26.0878   -24.3434 H            1 ATP402   0.0000
    40 H9          -1.1131   -24.5617   -25.6217 H            1 ATP402   0.0000
    41 H10         -4.0981   -27.6682   -21.1599 H            1 ATP402   0.0000
    42 H11         -4.2299   -26.5846   -22.5047 H            1 ATP402   0.0000
    43 H12          0.3924   -28.5706   -20.9052 H            1 ATP402   0.0000
@<TRIPOS>BOND
     1    1    2      ar
     2    1    3      ar
     3    1    4      ar
     4    1    8       1
     5    5    6      ar
     6    5    7      ar
     7    5    8       1
     8    5   12       1
     9    9   10      ar
    10    9   11      ar
    11    9   12       1
    12    9   13       1
    13   13   14       1
    14   14   15       1
    15   15   16       1
    16   15   17       1
    17   16   21       1
    18   17   18       1
    19   17   19       1
    20   19   20       1
    21   19   21       1
    22   21   22       1
    23   22   23       1
    24   22   31       1
    25   23   24       2
    26   24   25       1
    27   25   26      ar
    28   25   31      ar
    29   26   27       1
    30   26   28      ar
    31   28   29      ar
    32   29   30      ar
    33   30   31      ar
    34   29   43       1
    35   27   42       1
    36   27   41       1
    37   23   40       1
    38   14   32       1
    39   14   33       1
    40   15   34       1
    41   17   35       1
    42   18   36       1
    43   19   37       1
    44   20   38       1
    45   21   39       1
@<TRIPOS>SUBSTRUCTURE
     1 ATP402      1 GROUP             4 A     ATP     0 **** ATP A 402
