@<TRIPOS>MOLECULE
3hy3_10F_1_ligand
   66    68     1     0     0
SMALL
NO_CHARGES


@<TRIPOS>ATOM
     1 N1          12.2680    17.5350    -6.2370 N.4          1 10F501   1.0000
     2 C2          11.7050    18.7390    -5.5340 C.3          1 10F501   0.0000
     3 NA2         12.5580    19.8670    -5.7160 N.4          1 10F501   1.0000
     4 N3          10.2630    19.1310    -5.7910 N.4          1 10F501   1.0000
     5 C4           9.3870    17.9410    -5.9380 C.3          1 10F501   0.0000
     6 O4           8.0910    18.2010    -6.3040 O.3          1 10F501   0.0000
     7 C4A         10.0400    16.8980    -6.8150 C.3          1 10F501   0.0000
     8 N5           9.0000    15.8470    -7.0730 N.4          1 10F501   1.0000
     9 C6           9.7120    14.7420    -7.7970 C.3          1 10F501   0.0000
    10 C7          10.9180    14.1050    -7.0780 C.3          1 10F501   0.0000
    11 N8          11.9300    15.1920    -6.8710 N.4          1 10F501   1.0000
    12 C8A         11.3010    16.3970    -6.1810 C.3          1 10F501   0.0000
    13 C9           8.9180    14.0340    -8.9440 C.3          1 10F501   0.0000
    14 N10          8.6060    14.6600    -9.9110 N.am         1 10F501   0.0000
    15 C11          4.2470    14.7750   -10.8970 C.ar         1 10F501   0.0000
    16 C12          5.1320    16.0850   -11.1060 C.ar         1 10F501   0.0000
    17 C13          6.6470    16.0490   -10.8000 C.ar         1 10F501   0.0000
    18 C14          7.2400    14.7030   -10.2670 C.ar         1 10F501   0.0000
    19 C15          6.3770    13.3920   -10.0250 C.ar         1 10F501   0.0000
    20 C16          4.8640    13.4540   -10.3400 C.ar         1 10F501   0.0000
    21 C17          2.7570    14.8400   -11.1050 C.2          1 10F501   0.0000
    22 N            2.4330    15.9940   -11.9070 N.am         1 10F501   0.0000
    23 CA           1.9250    16.0270   -13.2720 C.3          1 10F501   0.0000
    24 CB           1.1950    17.3680   -13.4350 C.3          1 10F501   0.0000
    25 CG           2.2550    18.4480   -13.0710 C.3          1 10F501   0.0000
    26 CD           2.7070    19.3370   -14.2760 C.2          1 10F501   0.0000
    27 OE1          3.2030    20.6070   -13.8780 O.co2        1 10F501   0.0000
    28 OE2          1.7710    19.4460   -15.3280 O.co2        1 10F501  -1.0000
    29 CT           1.0520    14.8100   -13.5650 C.2          1 10F501   0.0000
    30 O2           1.8630    13.6640   -13.7290 O.co2        1 10F501   0.0000
    31 O1          -0.0050    14.6680   -12.6360 O.co2        1 10F501  -1.0000
    32 C18          9.6610    14.9020   -10.8230 C.2          1 10F501   0.0000
    33 O5          10.6830    14.6740   -10.3670 O.2          1 10F501   0.0000
    34 O            2.1450    14.6670   -10.1340 O.2          1 10F501   0.0000
    35 H1          13.1217    17.2637    -5.7926 H            1 10F501   0.0000
    36 H2          11.7525    18.5240    -4.5585 H            1 10F501   0.0000
    37 HA21        12.0111    20.7041    -5.7022 H            1 10F501   0.0000
    38 HA22        13.2325    19.8973    -4.9784 H            1 10F501   0.0000
    39 H5          10.2191    19.6713    -6.6313 H            1 10F501   0.0000
    40 H6           9.3330    17.5318    -5.0271 H            1 10F501   0.0000
    41 H7           7.5860    17.3409    -6.3759 H            1 10F501   0.0000
    42 H4A         10.2764    17.3257    -7.6875 H            1 10F501   0.0000
    43 H9           8.2632    16.2168    -7.6390 H            1 10F501   0.0000
    44 H10         10.2492    15.3376    -8.3942 H            1 10F501   0.0000
    45 H11         11.3075    13.3760    -7.6409 H            1 10F501   0.0000
    46 H12         10.6327    13.7291    -6.1964 H            1 10F501   0.0000
    47 H13         12.2923    15.4754    -7.7589 H            1 10F501   0.0000
    48 H8A         11.1186    16.1687    -5.2246 H            1 10F501   0.0000
    49 H15          8.0740    13.6813    -8.5399 H            1 10F501   0.0000
    50 H16          9.4808    13.2702    -9.2600 H            1 10F501   0.0000
    51 H17          4.7076    16.9287   -11.4346 H            1 10F501   0.0000
    52 H18          7.2246    16.8537   -10.9372 H            1 10F501   0.0000
    53 H19          6.7983    12.5533    -9.6800 H            1 10F501   0.0000
    54 H20          4.2850    12.6530   -10.1878 H            1 10F501   0.0000
    55 H21          2.5748    16.8830   -11.4715 H            1 10F501   0.0000
    56 HA           2.7042    16.0141   -13.8987 H            1 10F501   0.0000
    57 HB1          0.4123    17.4201   -12.8148 H            1 10F501   0.0000
    58 HB2          0.8820    17.4859   -14.3774 H            1 10F501   0.0000
    59 HG1          3.0614    17.9843   -12.7039 H            1 10F501   0.0000
    60 HG2          1.8657    19.0452   -12.3697 H            1 10F501   0.0000
    61 H27          9.5273    15.2336   -11.7569 H            1 10F501   0.0000
    62 H28         12.4488    17.7666    -7.1929 H            1 10F501   0.0000
    63 HA23        13.0286    19.7907    -6.5950 H            1 10F501   0.0000
    64 H30          9.9353    19.6816    -5.0232 H            1 10F501   0.0000
    65 H31          8.6214    15.5116    -6.2103 H            1 10F501   0.0000
    66 H32         12.6751    14.8418    -6.3034 H            1 10F501   0.0000
@<TRIPOS>BOND
     1    1    2       1
     2    1   12       1
     3    2    3       1
     4    2    4       1
     5    4    5       1
     6    5    6       1
     7    5    7       1
     8    7    8       1
     9    7   12       1
    10    8    9       1
    11    9   10       1
    12    9   13       1
    13   10   11       1
    14   11   12       1
    15   13   14       1
    16   14   18       1
    17   14   32      am
    18   15   16      ar
    19   15   20      ar
    20   15   21       1
    21   16   17      ar
    22   17   18      ar
    23   18   19      ar
    24   19   20      ar
    25   21   22      am
    26   21   34       2
    27   22   23       1
    28   23   24       1
    29   23   29       1
    30   24   25       1
    31   25   26       1
    32   26   27      ar
    33   26   28      ar
    34   29   30      ar
    35   29   31      ar
    36   32   33       2
    37    1   35       1
    38    2   36       1
    39    3   37       1
    40    3   38       1
    41    4   39       1
    42    5   40       1
    43    6   41       1
    44    7   42       1
    45    8   43       1
    46    9   44       1
    47   10   45       1
    48   10   46       1
    49   11   47       1
    50   12   48       1
    51   13   49       1
    52   13   50       1
    53   16   51       1
    54   17   52       1
    55   19   53       1
    56   20   54       1
    57   22   55       1
    58   23   56       1
    59   24   57       1
    60   24   58       1
    61   25   59       1
    62   25   60       1
    63   11   66       1
    64    8   65       1
    65   32   61       1
    66    1   62       1
    67    3   63       1
    68    4   64       1
@<TRIPOS>SUBSTRUCTURE
     1 10F501      1 GROUP             4 A     10F     0 **** 10F A 501
