@<TRIPOS>MOLECULE
3wqu_ATP_4_ligand
   43    45     1     0     0
SMALL
NO_CHARGES


@<TRIPOS>ATOM
     1 PG          33.1100    -2.6040   -55.5730 P.3          1 ATP501   0.0000
     2 O1G         34.0950    -3.5950   -56.0110 O.co2        1 ATP501   0.0000
     3 O2G         31.6370    -3.2110   -55.7290 O.co2        1 ATP501  -1.0000
     4 O3G         33.4320    -2.3230   -54.0380 O.co2        1 ATP501  -1.0000
     5 PB          32.2840    -0.0530   -56.1280 P.3          1 ATP501   0.0000
     6 O1B         32.7250     1.0740   -56.9650 O.co2        1 ATP501   0.0000
     7 O2B         32.3950     0.4190   -54.6140 O.co2        1 ATP501  -1.0000
     8 O3B         33.2810    -1.2900   -56.4970 O.3          1 ATP501   0.0000
     9 PA          29.7790     0.8580   -56.0750 P.3          1 ATP501   0.0000
    10 O1A         30.3400     2.1300   -56.5900 O.co2        1 ATP501   0.0000
    11 O2A         29.6170     0.9660   -54.4870 O.co2        1 ATP501  -1.0000
    12 O3A         30.7470    -0.4070   -56.4470 O.3          1 ATP501   0.0000
    13 O5'         28.3280     0.6100   -56.7410 O.3          1 ATP501   0.0000
    14 C5'         28.5370     0.5130   -58.1570 C.3          1 ATP501   0.0000
    15 C4'         27.5540    -0.4730   -58.7820 C.3          1 ATP501   0.0000
    16 O4'         26.1920     0.0390   -58.6580 O.3          1 ATP501   0.0000
    17 C3'         27.8540    -0.6260   -60.2900 C.3          1 ATP501   0.0000
    18 O3'         27.8600    -1.9990   -60.6700 O.3          1 ATP501   0.0000
    19 C2'         26.7070     0.1220   -60.9790 C.3          1 ATP501   0.0000
    20 O2'         26.3700    -0.5050   -62.2120 O.3          1 ATP501   0.0000
    21 C1'         25.5610     0.0010   -59.9630 C.3          1 ATP501   0.0000
    22 N9          24.6120     1.1190   -60.1020 N.pl3        1 ATP501   0.0000
    23 C8          24.8680     2.4370   -59.8130 C.2          1 ATP501   0.0000
    24 N7          23.7840     3.1510   -59.9400 N.2          1 ATP501   0.0000
    25 C5          22.7260     2.3300   -60.1420 C.ar         1 ATP501   0.0000
    26 C6          21.3030     2.4870   -60.0890 C.ar         1 ATP501   0.0000
    27 N6          20.7460     3.6880   -59.6800 N.pl3        1 ATP501   0.0000
    28 N1          20.5300     1.3810   -60.1660 N.ar         1 ATP501   0.0000
    29 C2          21.0620     0.1480   -60.1600 C.ar         1 ATP501   0.0000
    30 N3          22.3840    -0.0470   -60.2410 N.ar         1 ATP501   0.0000
    31 C4          23.2450     0.9980   -60.2060 C.ar         1 ATP501   0.0000
    32 H5'1        29.4707     0.1997   -58.3301 H            1 ATP501   0.0000
    33 H5'2        28.4056     1.4140   -58.5705 H            1 ATP501   0.0000
    34 H4'         27.6270    -1.3611   -58.3281 H            1 ATP501   0.0000
    35 H3'         28.7304    -0.2000   -60.5144 H            1 ATP501   0.0000
    36 H5          27.1597    -2.1552   -61.3665 H            1 ATP501   0.0000
    37 H2'         26.9489     1.0812   -61.1254 H            1 ATP501   0.0000
    38 H7          27.1672    -0.5031   -62.8158 H            1 ATP501   0.0000
    39 H1'         25.0845    -0.8694   -60.0871 H            1 ATP501   0.0000
    40 H9          25.7604     2.7985   -59.5430 H            1 ATP501   0.0000
    41 H10         19.7520     3.7919   -59.6449 H            1 ATP501   0.0000
    42 H11         21.3380     4.4508   -59.4199 H            1 ATP501   0.0000
    43 H12         20.4555    -0.6443   -60.0934 H            1 ATP501   0.0000
@<TRIPOS>BOND
     1    1    2      ar
     2    1    3      ar
     3    1    4      ar
     4    1    8       1
     5    5    6      ar
     6    5    7      ar
     7    5    8       1
     8    5   12       1
     9    9   10      ar
    10    9   11      ar
    11    9   12       1
    12    9   13       1
    13   13   14       1
    14   14   15       1
    15   15   16       1
    16   15   17       1
    17   16   21       1
    18   17   18       1
    19   17   19       1
    20   19   20       1
    21   19   21       1
    22   21   22       1
    23   22   23       1
    24   22   31       1
    25   23   24       2
    26   24   25       1
    27   25   26      ar
    28   25   31      ar
    29   26   27       1
    30   26   28      ar
    31   28   29      ar
    32   29   30      ar
    33   30   31      ar
    34   29   43       1
    35   27   42       1
    36   27   41       1
    37   23   40       1
    38   14   32       1
    39   14   33       1
    40   15   34       1
    41   17   35       1
    42   18   36       1
    43   19   37       1
    44   20   38       1
    45   21   39       1
@<TRIPOS>SUBSTRUCTURE
     1 ATP501      1 GROUP             4 D     ATP     0 **** ATP D 501
