@<TRIPOS>MOLECULE
2g2z_COZ_1_ligand
   80    82     1     0     0
SMALL
NO_CHARGES


@<TRIPOS>ATOM
     1 N1A         77.2390     7.7460    18.1190 N.ar         1 COZ1001   0.0000
     2 C2A         78.5130     7.3460    17.7940 C.ar         1 COZ1001   0.0000
     3 N3A         79.4140     8.2880    17.2140 N.ar         1 COZ1001   0.0000
     4 C4A         78.9030     9.6460    16.9620 C.ar         1 COZ1001   0.0000
     5 C5A         77.6190     9.9590    17.3060 C.ar         1 COZ1001   0.0000
     6 C6A         76.7440     9.0620    17.9130 C.ar         1 COZ1001   0.0000
     7 N6A         75.4270     9.3770    18.3450 N.pl3        1 COZ1001   0.0000
     8 N7A         77.3750    11.3190    16.9440 N.2          1 COZ1001   0.0000
     9 C8A         78.5700    11.8010    16.3820 C.2          1 COZ1001   0.0000
    10 N9A         79.4990    10.7750    16.3940 N.pl3        1 COZ1001   0.0000
    11 C1B         80.8810    10.9700    15.9320 C.3          1 COZ1001   0.0000
    12 C2B         81.4180     9.8160    15.0690 C.3          1 COZ1001   0.0000
    13 O2B         80.3910     9.1920    14.2950 O.3          1 COZ1001   0.0000
    14 C3B         82.3440    10.6220    14.1750 C.3          1 COZ1001   0.0000
    15 O3B         82.6820     9.9560    12.9690 O.3          1 COZ1001   0.0000
    16 P3B         84.1710    10.2370    12.3250 P.3          1 COZ1001   0.0000
    17 O7A         84.1980    11.7430    11.9450 O.co2        1 COZ1001   0.0000
    18 O8A         85.1930     9.8720    13.4360 O.co2        1 COZ1001  -1.0000
    19 O9A         84.2740     9.2990    11.0800 O.co2        1 COZ1001  -1.0000
    20 C4B         81.6240    11.9520    13.9580 C.3          1 COZ1001   0.0000
    21 O4B         80.9930    12.2030    15.2110 O.3          1 COZ1001   0.0000
    22 C5B         80.5690    11.8460    12.8430 C.3          1 COZ1001   0.0000
    23 O5B         79.4600    12.6970    13.1160 O.3          1 COZ1001   0.0000
    24 P1A         79.5240    14.3160    12.7960 P.3          1 COZ1001   0.0000
    25 O1A         80.9460    14.7570    12.7470 O.co2        1 COZ1001   0.0000
    26 O2A         78.7540    14.5910    11.5560 O.co2        1 COZ1001  -1.0000
    27 O3A         78.7680    15.0560    14.0890 O.3          1 COZ1001   0.0000
    28 P2A         78.5400    16.7090    14.0680 P.3          1 COZ1001   0.0000
    29 O4A         77.5230    17.0480    13.0400 O.co2        1 COZ1001   0.0000
    30 O5A         79.8510    17.3830    13.8770 O.co2        1 COZ1001  -1.0000
    31 O6A         77.9480    17.0950    15.5570 O.3          1 COZ1001   0.0000
    32 CBP         78.6580    18.3400    17.5240 C.3          1 COZ1001   0.0000
    33 CCP         78.8040    17.0610    16.6920 C.3          1 COZ1001   0.0000
    34 CDP         79.5440    18.1840    18.7670 C.3          1 COZ1001   0.0000
    35 CEP         79.1820    19.5170    16.6940 C.3          1 COZ1001   0.0000
    36 CAP         77.1710    18.5540    17.8990 C.3          1 COZ1001   0.0000
    37 OAP         76.5920    17.3620    18.4240 O.3          1 COZ1001   0.0000
    38 C9P         76.9650    19.6800    18.8710 C.2          1 COZ1001   0.0000
    39 O9P         77.0030    20.8690    18.5620 O.2          1 COZ1001   0.0000
    40 N8P         76.7280    19.3110    20.1850 N.am         1 COZ1001   0.0000
    41 C7P         76.6140    20.3170    21.2460 C.3          1 COZ1001   0.0000
    42 C6P         75.3920    20.0490    22.1210 C.3          1 COZ1001   0.0000
    43 C5P         75.4600    20.9260    23.3290 C.2          1 COZ1001   0.0000
    44 O5P         75.4870    20.4770    24.4740 O.2          1 COZ1001   0.0000
    45 N4P         75.5250    22.2940    23.1110 N.am         1 COZ1001   0.0000
    46 C3P         75.7250    23.2330    24.2290 C.3          1 COZ1001   0.0000
    47 C2P         76.8690    24.2020    23.9170 C.3          1 COZ1001   0.0000
    48 S1P         78.4090    23.3030    23.5900 S.3          1 COZ1001   0.0000
    49 H2A         78.8054     6.4046    17.9623 H            1 COZ1001   0.0000
    50 H6A1        75.0627    10.2982    18.2079 H            1 COZ1001   0.0000
    51 H6A2        74.8647     8.6775    18.7860 H            1 COZ1001   0.0000
    52 H8A         78.7226    12.7258    16.0336 H            1 COZ1001   0.0000
    53 H1B         81.4638    11.0389    16.7417 H            1 COZ1001   0.0000
    54 H2B         81.9229     9.1494    15.6174 H            1 COZ1001   0.0000
    55 H7          80.7863     8.4508    13.7525 H            1 COZ1001   0.0000
    56 H3B         83.1881    10.8020    14.6801 H            1 COZ1001   0.0000
    57 H4B         82.2823    12.6749    13.7479 H            1 COZ1001   0.0000
    58 H5B1        80.2498    10.9003    12.7821 H            1 COZ1001   0.0000
    59 H5B2        80.9827    12.1149    11.9732 H            1 COZ1001   0.0000
    60 HCP1        79.7519    16.9763    16.3850 H            1 COZ1001   0.0000
    61 HCP2        78.5654    16.2724    17.2588 H            1 COZ1001   0.0000
    62 HDP1        79.4712    19.0049    19.3334 H            1 COZ1001   0.0000
    63 HDP2        79.2433    17.3884    19.2929 H            1 COZ1001   0.0000
    64 HDP3        80.4949    18.0570    18.4847 H            1 COZ1001   0.0000
    65 HEP1        79.0946    20.3620    17.2216 H            1 COZ1001   0.0000
    66 HEP2        80.1438    19.3632    16.4677 H            1 COZ1001   0.0000
    67 HEP3        78.6494    19.5938    15.8511 H            1 COZ1001   0.0000
    68 HAP         76.6782    18.7851    17.0601 H            1 COZ1001   0.0000
    69 H21         75.6341    17.5310    18.6563 H            1 COZ1001   0.0000
    70 H8P         76.6330    18.3422    20.4140 H            1 COZ1001   0.0000
    71 H7P1        76.5272    21.2226    20.8307 H            1 COZ1001   0.0000
    72 H7P2        77.4363    20.2883    21.8143 H            1 COZ1001   0.0000
    73 H6P1        75.3848    19.0895    22.4027 H            1 COZ1001   0.0000
    74 H6P2        74.5592    20.2514    21.6057 H            1 COZ1001   0.0000
    75 H4P         75.4347    22.6489    22.1805 H            1 COZ1001   0.0000
    76 H3P1        75.9470    22.7171    25.0564 H            1 COZ1001   0.0000
    77 H3P2        74.8838    23.7533    24.3763 H            1 COZ1001   0.0000
    78 H2P1        77.0050    24.8104    24.6989 H            1 COZ1001   0.0000
    79 H2P2        76.6287    24.7434    23.1113 H            1 COZ1001   0.0000
    80 H1P         78.4749    23.0990    22.6132 H            1 COZ1001   0.0000
@<TRIPOS>BOND
     1    1    2      ar
     2    1    6      ar
     3    2    3      ar
     4    3    4      ar
     5    4    5      ar
     6    4   10       1
     7    5    6      ar
     8    5    8       1
     9    6    7       1
    10    8    9       2
    11    9   10       1
    12   10   11       1
    13   11   12       1
    14   11   21       1
    15   12   13       1
    16   12   14       1
    17   14   15       1
    18   14   20       1
    19   15   16       1
    20   16   17      ar
    21   16   18      ar
    22   16   19      ar
    23   20   21       1
    24   20   22       1
    25   22   23       1
    26   23   24       1
    27   24   25      ar
    28   24   26      ar
    29   24   27       1
    30   27   28       1
    31   28   29      ar
    32   28   30      ar
    33   28   31       1
    34   31   33       1
    35   32   33       1
    36   32   34       1
    37   32   35       1
    38   32   36       1
    39   36   37       1
    40   36   38       1
    41   38   39       2
    42   38   40      am
    43   40   41       1
    44   41   42       1
    45   42   43       1
    46   43   44       2
    47   43   45      am
    48   45   46       1
    49   46   47       1
    50   47   48       1
    51    2   49       1
    52    7   50       1
    53    7   51       1
    54    9   52       1
    55   11   53       1
    56   12   54       1
    57   13   55       1
    58   14   56       1
    59   48   80       1
    60   47   79       1
    61   20   57       1
    62   22   58       1
    63   22   59       1
    64   47   78       1
    65   46   77       1
    66   33   60       1
    67   33   61       1
    68   34   62       1
    69   34   63       1
    70   34   64       1
    71   35   65       1
    72   35   66       1
    73   35   67       1
    74   36   68       1
    75   37   69       1
    76   40   70       1
    77   41   71       1
    78   41   72       1
    79   42   73       1
    80   42   74       1
    81   45   75       1
    82   46   76       1
@<TRIPOS>SUBSTRUCTURE
     1 COZ1001     1 GROUP             4 A     COZ     0 **** COZ A1001
