@<TRIPOS>MOLECULE
1pjc_NAD_1_ligand
   70    74     1     0     0
SMALL
NO_CHARGES


@<TRIPOS>ATOM
     1 PA          12.2990    10.6720    21.2190 P.3          1 NAD500   0.0000
     2 O1A         12.5660    10.1120    22.6110 O.co2        1 NAD500   0.0000
     3 O2A         10.8480    10.5270    20.6650 O.co2        1 NAD500  -1.0000
     4 O5B         13.3810    10.0310    20.1360 O.3          1 NAD500   0.0000
     5 C5B         14.7940     9.8410    20.4840 C.3          1 NAD500   0.0000
     6 C4B         15.1730     8.4720    20.1790 C.3          1 NAD500   0.0000
     7 O4B         16.6140     8.3760    20.2000 O.3          1 NAD500   0.0000
     8 C3B         14.7420     7.2520    21.1120 C.3          1 NAD500   0.0000
     9 O3B         13.9310     6.3010    20.2540 O.3          1 NAD500   0.0000
    10 C2B         16.0410     6.5700    21.6570 C.3          1 NAD500   0.0000
    11 O2B         16.0320     5.1930    21.8290 O.3          1 NAD500   0.0000
    12 C1B         16.9570     7.0570    20.5250 C.3          1 NAD500   0.0000
    13 N9A         18.3270     7.1080    20.9040 N.pl3        1 NAD500   0.0000
    14 C8A         18.9380     7.4130    22.1240 C.2          1 NAD500   0.0000
    15 N7A         20.2100     7.1340    22.1580 N.2          1 NAD500   0.0000
    16 C5A         20.5000     6.6090    20.9470 C.ar         1 NAD500   0.0000
    17 C6A         21.7540     6.0680    20.3940 C.ar         1 NAD500   0.0000
    18 N6A         22.9210     6.0170    21.0140 N.pl3        1 NAD500   0.0000
    19 N1A         21.6130     5.6790    19.0690 N.ar         1 NAD500   0.0000
    20 C2A         20.5380     5.7150    18.3410 C.ar         1 NAD500   0.0000
    21 N3A         19.3590     6.1640    18.8340 N.ar         1 NAD500   0.0000
    22 C4A         19.3660     6.6340    20.1460 C.ar         1 NAD500   0.0000
    23 O3          12.7190    12.1720    21.1770 O.3          1 NAD500   0.0000
    24 PN          12.3180    13.2570    20.0250 P.3          1 NAD500   0.0000
    25 O1N         12.4680    12.4360    18.7770 O.co2        1 NAD500   0.0000
    26 O2N         11.0380    13.8660    20.4640 O.co2        1 NAD500  -1.0000
    27 O5D         13.5530    14.3250    20.0420 O.3          1 NAD500   0.0000
    28 C5D         14.7530    14.1430    19.1870 C.3          1 NAD500   0.0000
    29 C4D         15.7760    15.1360    19.4430 C.3          1 NAD500   0.0000
    30 O4D         15.3950    16.3820    18.6290 O.3          1 NAD500   0.0000
    31 C3D         15.9230    15.7460    20.9100 C.3          1 NAD500   0.0000
    32 O3D         17.3030    15.8670    21.0880 O.3          1 NAD500   0.0000
    33 C2D         15.1570    17.1370    20.9060 C.3          1 NAD500   0.0000
    34 O2D         15.7010    18.0500    21.8070 O.3          1 NAD500   0.0000
    35 C1D         15.4010    17.5660    19.4130 C.3          1 NAD500   0.0000
    36 N1N         14.3810    18.6340    18.7500 N.ar         1 NAD500   1.0000
    37 C2N         14.8170    19.8020    17.9890 C.ar         1 NAD500   0.0000
    38 C3N         13.7420    20.6850    17.6100 C.ar         1 NAD500   0.0000
    39 C7N         14.2450    22.0030    16.7660 C.2          1 NAD500   0.0000
    40 O7N         13.3630    22.8160    16.3710 O.2          1 NAD500   0.0000
    41 N7N         15.5880    22.1590    16.5310 N.am         1 NAD500   0.0000
    42 C4N         12.3650    20.5090    17.8860 C.ar         1 NAD500   0.0000
    43 C5N         12.0780    19.3020    18.6430 C.ar         1 NAD500   0.0000
    44 C6N         13.0610    18.3900    19.0580 C.ar         1 NAD500   0.0000
    45 H5B1        14.9261    10.0166    21.4595 H            1 NAD500   0.0000
    46 H5B2        15.3586    10.4722    19.9522 H            1 NAD500   0.0000
    47 H4B         14.8662     8.2694    19.2490 H            1 NAD500   0.0000
    48 H3B         14.1854     7.5843    21.8734 H            1 NAD500   0.0000
    49 H5          14.4916     5.9805    19.4904 H            1 NAD500   0.0000
    50 H2B         16.3112     7.0091    22.5139 H            1 NAD500   0.0000
    51 H7          16.3413     4.7499    20.9875 H            1 NAD500   0.0000
    52 H1B         16.8478     6.4699    19.7229 H            1 NAD500   0.0000
    53 H8A         18.4444     7.8086    22.8985 H            1 NAD500   0.0000
    54 H6A1        23.7171     5.6285    20.5500 H            1 NAD500   0.0000
    55 H6A2        23.0073     6.3669    21.9468 H            1 NAD500   0.0000
    56 H2A         20.5819     5.4031    17.3919 H            1 NAD500   0.0000
    57 H5D1        14.4760    14.2085    18.2284 H            1 NAD500   0.0000
    58 H5D2        15.1362    13.2361    19.3620 H            1 NAD500   0.0000
    59 H4D         16.6622    14.7915    19.1331 H            1 NAD500   0.0000
    60 H3D         15.5310    15.1279    21.5914 H            1 NAD500   0.0000
    61 H17         17.7294    14.9659    21.0099 H            1 NAD500   0.0000
    62 H2D         14.1815    17.0046    21.0815 H            1 NAD500   0.0000
    63 H19         15.0059    18.3122    22.4764 H            1 NAD500   0.0000
    64 H1D         16.3202    17.9563    19.3596 H            1 NAD500   0.0000
    65 H2N         15.7734    19.9735    17.7525 H            1 NAD500   0.0000
    66 H7N1        15.9172    22.9529    16.0198 H            1 NAD500   0.0000
    67 H7N2        16.2374    21.4788    16.8709 H            1 NAD500   0.0000
    68 H4N         11.6589    21.1520    17.5893 H            1 NAD500   0.0000
    69 H5N         11.1260    19.1103    18.8818 H            1 NAD500   0.0000
    70 H6N         12.8054    17.5713    19.5722 H            1 NAD500   0.0000
@<TRIPOS>BOND
     1    1    2      ar
     2    1    3      ar
     3    1    4       1
     4    1   23       1
     5    4    5       1
     6    5    6       1
     7    6    7       1
     8    6    8       1
     9    7   12       1
    10    8    9       1
    11    8   10       1
    12   10   11       1
    13   10   12       1
    14   12   13       1
    15   13   14       1
    16   13   22       1
    17   14   15       2
    18   15   16       1
    19   16   17      ar
    20   16   22      ar
    21   17   18       1
    22   17   19      ar
    23   19   20      ar
    24   20   21      ar
    25   21   22      ar
    26   23   24       1
    27   24   25      ar
    28   24   26      ar
    29   24   27       1
    30   27   28       1
    31   28   29       1
    32   29   30       1
    33   29   31       1
    34   30   35       1
    35   31   32       1
    36   31   33       1
    37   33   34       1
    38   33   35       1
    39   35   36       1
    40   36   37      ar
    41   36   44      ar
    42   37   38      ar
    43   38   39       1
    44   38   42      ar
    45   39   40       2
    46   39   41      am
    47   42   43      ar
    48   43   44      ar
    49   44   70       1
    50    5   45       1
    51    5   46       1
    52    6   47       1
    53    8   48       1
    54    9   49       1
    55   10   50       1
    56   11   51       1
    57   12   52       1
    58   14   53       1
    59   18   54       1
    60   18   55       1
    61   20   56       1
    62   43   69       1
    63   28   57       1
    64   28   58       1
    65   29   59       1
    66   31   60       1
    67   32   61       1
    68   33   62       1
    69   34   63       1
    70   35   64       1
    71   37   65       1
    72   41   66       1
    73   41   67       1
    74   42   68       1
@<TRIPOS>SUBSTRUCTURE
     1 NAD500      1 GROUP             4 A     NAD     0 **** NAD A 500
