@<TRIPOS>MOLECULE
1e94_ANP_1_ligand
   45    47     1     0     0
SMALL
NO_CHARGES


@<TRIPOS>ATOM
     1 PG         -14.4950   125.5950   -37.8430 P.3          1 ANP500   0.0000
     2 O1G        -14.3120   125.5490   -39.5640 O.co2        1 ANP500   0.0000
     3 O2G        -15.9200   124.8080   -37.4250 O.co2        1 ANP500  -1.0000
     4 O3G        -13.0450   125.0320   -37.0670 O.co2        1 ANP500  -1.0000
     5 PB         -15.3480   128.6200   -37.4090 P.3          1 ANP500   0.0000
     6 O1B        -16.6050   128.4410   -36.8370 O.co2        1 ANP500   0.0000
     7 O2B        -15.2540   128.9030   -38.7860 O.co2        1 ANP500  -1.0000
     8 N3B        -14.4380   127.3630   -37.2350 N.3          1 ANP500   0.0000
     9 PA         -14.7330   130.5810   -35.4090 P.3          1 ANP500   0.0000
    10 O1A        -16.0290   131.0270   -35.3240 O.co2        1 ANP500   0.0000
    11 O2A        -14.2520   129.7240   -34.2770 O.co2        1 ANP500  -1.0000
    12 O3A        -14.5970   129.7660   -36.7360 O.3          1 ANP500   0.0000
    13 O5'        -13.6230   131.6440   -35.4860 O.3          1 ANP500   0.0000
    14 C5'        -13.4610   132.8090   -36.2110 C.3          1 ANP500   0.0000
    15 C4'        -12.9750   133.8520   -35.2910 C.3          1 ANP500   0.0000
    16 O4'        -13.5450   135.1240   -35.5810 O.3          1 ANP500   0.0000
    17 C3'        -13.2910   133.5920   -33.7640 C.3          1 ANP500   0.0000
    18 O3'        -12.0610   133.4220   -33.2610 O.3          1 ANP500   0.0000
    19 C2'        -13.9730   134.7100   -33.1920 C.3          1 ANP500   0.0000
    20 O2'        -13.1060   135.3420   -32.2160 O.3          1 ANP500   0.0000
    21 C1'        -14.1350   135.6900   -34.3430 C.3          1 ANP500   0.0000
    22 N9         -15.6670   136.2860   -34.4170 N.pl3        1 ANP500   0.0000
    23 C8         -16.5240   137.3550   -33.5740 C.2          1 ANP500   0.0000
    24 N7         -17.8610   137.5640   -33.9890 N.2          1 ANP500   0.0000
    25 C5         -17.7850   136.6520   -35.0550 C.ar         1 ANP500   0.0000
    26 C6         -18.6800   136.2230   -35.9790 C.ar         1 ANP500   0.0000
    27 N6         -19.9240   136.6380   -35.9590 N.pl3        1 ANP500   0.0000
    28 N1         -18.2120   135.2490   -36.9880 N.ar         1 ANP500   0.0000
    29 C2         -16.8290   134.7190   -36.9950 C.ar         1 ANP500   0.0000
    30 N3         -15.9360   134.9700   -36.1950 N.ar         1 ANP500   1.0000
    31 C4         -16.4310   135.9080   -35.2870 C.ar         1 ANP500   0.0000
    32 H3B        -14.3992   127.2540   -36.2417 H            1 ANP500   0.0000
    33 H5'1       -14.3360   133.0867   -36.6075 H            1 ANP500   0.0000
    34 H5'2       -12.7947   132.6640   -36.9424 H            1 ANP500   0.0000
    35 H4'        -11.9831   133.9234   -35.3965 H            1 ANP500   0.0000
    36 H3'        -13.8323   132.7583   -33.6552 H            1 ANP500   0.0000
    37 H6         -11.8888   134.1143   -32.5603 H            1 ANP500   0.0000
    38 H2'        -14.8535   134.4487   -32.7965 H            1 ANP500   0.0000
    39 H8         -13.5454   135.3228   -31.3179 H            1 ANP500   0.0000
    40 H1'        -13.5577   136.4720   -34.1081 H            1 ANP500   0.0000
    41 H10        -16.1321   137.8468   -32.7964 H            1 ANP500   0.0000
    42 H11        -20.5711   136.3116   -36.6480 H            1 ANP500   0.0000
    43 H12        -20.2254   137.2808   -35.2548 H            1 ANP500   0.0000
    44 H13        -16.5988   134.0864   -37.7345 H            1 ANP500   0.0000
    45 H14        -15.0176   134.5743   -36.1927 H            1 ANP500   0.0000
@<TRIPOS>BOND
     1    1    2      ar
     2    1    3      ar
     3    1    4      ar
     4    1    8       1
     5    5    6      ar
     6    5    7      ar
     7    5    8       1
     8    5   12       1
     9    9   10      ar
    10    9   11      ar
    11    9   12       1
    12    9   13       1
    13   13   14       1
    14   14   15       1
    15   15   16       1
    16   15   17       1
    17   16   21       1
    18   17   18       1
    19   17   19       1
    20   19   20       1
    21   19   21       1
    22   21   22       1
    23   22   23       1
    24   22   31       1
    25   23   24       2
    26   24   25       1
    27   25   26      ar
    28   25   31      ar
    29   26   27       1
    30   26   28      ar
    31   28   29      ar
    32   29   30      ar
    33   30   31      ar
    34   29   44       1
    35   27   43       1
    36   27   42       1
    37    8   32       1
    38   23   41       1
    39   14   33       1
    40   14   34       1
    41   15   35       1
    42   17   36       1
    43   18   37       1
    44   19   38       1
    45   20   39       1
    46   21   40       1
    47   30   45       1
@<TRIPOS>SUBSTRUCTURE
     1 ANP500      1 GROUP             4 E     ANP     0 **** ANP E 500
