@<TRIPOS>MOLECULE
4c1h_X8Z_1_ligand
   27    27     1     0     0
SMALL
NO_CHARGES


@<TRIPOS>ATOM
     1 O1          13.5050    13.2500    42.0170 O.2          1 X8Z305   0.0000
     2 C4          12.9420    13.3410    43.0980 C.2          1 X8Z305   0.0000
     3 C2          13.7400    13.2950    44.3750 C.3          1 X8Z305   0.0000
     4 C1          14.7720    12.1880    44.3260 C.3          1 X8Z305   0.0000
     5 S           14.0450    10.5750    44.1510 S.3          1 X8Z305  -1.0000
     6 C3          14.4240    14.6360    44.5380 C.3          1 X8Z305   0.0000
     7 N           11.5330    13.4800    43.1450 N.am         1 X8Z305   0.0000
     8 C8          10.8580    13.5360    41.9390 C.3          1 X8Z305   0.0000
     9 C9          11.1150    14.8230    41.1850 C.2          1 X8Z305   0.0000
    10 O3          10.7820    14.9020    39.9730 O.co2        1 X8Z305   0.0000
    11 O2          11.6530    15.8120    41.7550 O.co2        1 X8Z305  -1.0000
    12 C5          10.8140    13.5990    44.3030 C.3          1 X8Z305   0.0000
    13 C6           9.3610    13.6370    43.8950 C.3          1 X8Z305   0.0000
    14 C7           9.3740    13.4140    42.3430 C.3          1 X8Z305   0.0000
    15 H1          13.1233    13.1405    45.1469 H            1 X8Z305   0.0000
    16 H2          15.3032    12.2088    45.1730 H            1 X8Z305   0.0000
    17 H3          15.3787    12.3511    43.5480 H            1 X8Z305   0.0000
    18 H4          14.9630    14.6350    45.3803 H            1 X8Z305   0.0000
    19 H5          15.0264    14.8000    43.7569 H            1 X8Z305   0.0000
    20 H6          13.7342    15.3585    44.5845 H            1 X8Z305   0.0000
    21 H7          11.1178    12.7551    41.3709 H            1 X8Z305   0.0000
    22 H8          11.0622    14.4421    44.7800 H            1 X8Z305   0.0000
    23 H9          10.9860    12.8153    44.8999 H            1 X8Z305   0.0000
    24 H10          8.9551    14.5227    44.1201 H            1 X8Z305   0.0000
    25 H11          8.8481    12.9097    44.3510 H            1 X8Z305   0.0000
    26 H12          9.0203    12.5070    42.1146 H            1 X8Z305   0.0000
    27 H13          8.8251    14.1116    41.8824 H            1 X8Z305   0.0000
@<TRIPOS>BOND
     1    1    2       2
     2    2    3       1
     3    2    7      am
     4    3    4       1
     5    3    6       1
     6    4    5       1
     7    7    8       1
     8    7   12       1
     9    8    9       1
    10    8   14       1
    11    9   10      ar
    12    9   11      ar
    13   12   13       1
    14   13   14       1
    15    3   15       1
    16    4   16       1
    17    4   17       1
    18   14   26       1
    19    6   18       1
    20    6   19       1
    21    6   20       1
    22    8   21       1
    23   14   27       1
    24   12   22       1
    25   12   23       1
    26   13   24       1
    27   13   25       1
@<TRIPOS>SUBSTRUCTURE
     1 X8Z305      1 GROUP             4 A     X8Z     0 **** X8Z A 305
