@<TRIPOS>MOLECULE
3er9_3AT_1_ligand
   42    44     1     0     0
SMALL
NO_CHARGES


@<TRIPOS>ATOM
     1 PG          18.3450    16.7740    24.7680 P.3          1 3AT800   0.0000
     2 O1G         17.9290    18.2940    25.0050 O.co2        1 3AT800   0.0000
     3 O2G         19.4440    16.4100    25.8650 O.co2        1 3AT800  -1.0000
     4 O3G         17.1080    15.8220    24.9880 O.co2        1 3AT800  -1.0000
     5 PB          19.4250    15.1600    22.8220 P.3          1 3AT800   0.0000
     6 O1B         18.8110    14.0790    23.6170 O.co2        1 3AT800   0.0000
     7 O2B         21.0240    15.0640    22.9000 O.co2        1 3AT800  -1.0000
     8 O3B         18.9690    16.6680    23.3010 O.3          1 3AT800   0.0000
     9 PA          17.5680    14.5500    20.8970 P.3          1 3AT800   0.0000
    10 O1A         16.7250    14.4260    22.0800 O.co2        1 3AT800   0.0000
    11 O2A         16.8890    15.5510    19.8830 O.co2        1 3AT800  -1.0000
    12 O3A         19.0870    15.0500    21.2540 O.3          1 3AT800   0.0000
    13 O5'         17.6780    13.1900    20.0460 O.3          1 3AT800   0.0000
    14 C5'         18.9450    13.2960    19.4280 C.3          1 3AT800   0.0000
    15 C4'         19.5850    12.0500    18.9170 C.3          1 3AT800   0.0000
    16 O4'         18.6120    11.2100    18.2160 O.3          1 3AT800   0.0000
    17 C3'         20.7280    12.4290    17.9480 C.3          1 3AT800   0.0000
    18 C2'         20.5680    11.3200    16.9110 C.3          1 3AT800   0.0000
    19 O2'         21.3140    10.1660    17.3100 O.3          1 3AT800   0.0000
    20 C1'         19.0270    11.0700    16.8500 C.3          1 3AT800   0.0000
    21 N9          18.3600    12.0880    15.9520 N.pl3        1 3AT800   0.0000
    22 C8          17.5250    13.1570    16.2780 C.2          1 3AT800   0.0000
    23 N7          17.1380    13.8250    15.2400 N.2          1 3AT800   0.0000
    24 C5          17.6840    13.2470    14.1500 C.ar         1 3AT800   0.0000
    25 C6          17.6570    13.4870    12.7340 C.ar         1 3AT800   0.0000
    26 N6          16.9190    14.5490    12.2370 N.pl3        1 3AT800   0.0000
    27 N1          18.3600    12.6620    11.8970 N.ar         1 3AT800   0.0000
    28 C2          19.1030    11.6020    12.3330 C.ar         1 3AT800   0.0000
    29 N3          19.1570    11.3420    13.6610 N.ar         1 3AT800   0.0000
    30 C4          18.4850    12.1140    14.5790 C.ar         1 3AT800   0.0000
    31 H5'1        19.5695    13.6969    20.0983 H            1 3AT800   0.0000
    32 H5'2        18.8452    13.9182    18.6515 H            1 3AT800   0.0000
    33 H4'         19.9651    11.5377    19.6871 H            1 3AT800   0.0000
    34 H3'1        21.6217    12.3938    18.3952 H            1 3AT800   0.0000
    35 H3'2        20.5911    13.3351    17.5477 H            1 3AT800   0.0000
    36 H2'         20.8931    11.6407    16.0214 H            1 3AT800   0.0000
    37 H7          22.1100    10.4518    17.8435 H            1 3AT800   0.0000
    38 H1'         18.8387    10.1437    16.5237 H            1 3AT800   0.0000
    39 H9          17.2546    13.3827    17.2139 H            1 3AT800   0.0000
    40 H10         16.8945    14.7236    11.2527 H            1 3AT800   0.0000
    41 H11         16.4109    15.1410    12.8626 H            1 3AT800   0.0000
    42 H12         19.5990    11.0273    11.6821 H            1 3AT800   0.0000
@<TRIPOS>BOND
     1    1    2      ar
     2    1    3      ar
     3    1    4      ar
     4    1    8       1
     5    5    6      ar
     6    5    7      ar
     7    5    8       1
     8    5   12       1
     9    9   10      ar
    10    9   11      ar
    11    9   12       1
    12    9   13       1
    13   13   14       1
    14   14   15       1
    15   15   16       1
    16   15   17       1
    17   16   20       1
    18   17   18       1
    19   18   19       1
    20   18   20       1
    21   20   21       1
    22   21   22       1
    23   21   30       1
    24   22   23       2
    25   23   24       1
    26   24   25      ar
    27   24   30      ar
    28   25   26       1
    29   25   27      ar
    30   27   28      ar
    31   28   29      ar
    32   29   30      ar
    33   28   42       1
    34   26   41       1
    35   26   40       1
    36   22   39       1
    37   14   31       1
    38   14   32       1
    39   15   33       1
    40   17   34       1
    41   17   35       1
    42   18   36       1
    43   19   37       1
    44   20   38       1
@<TRIPOS>SUBSTRUCTURE
     1 3AT800      1 GROUP             4 B     3AT     0 **** 3AT B 800
