@<TRIPOS>MOLECULE
4ybn_FAD_2_ligand
   84    89     1     0     0
SMALL
NO_CHARGES


@<TRIPOS>ATOM
     1 PA          20.8890    -1.5660     8.4650 P.3          1 FAD305   0.0000
     2 O1A         21.7560    -2.6190     7.8360 O.co2        1 FAD305   0.0000
     3 O2A         20.9640    -0.1860     7.8820 O.co2        1 FAD305  -1.0000
     4 O5B         19.3500    -2.1620     8.5550 O.3          1 FAD305   0.0000
     5 C5B         18.9960    -3.4730     8.0640 C.3          1 FAD305   0.0000
     6 C4B         17.8460    -4.0860     8.8760 C.3          1 FAD305   0.0000
     7 O4B         18.3040    -4.3990    10.2050 O.3          1 FAD305   0.0000
     8 C3B         16.6640    -3.1600     9.1920 C.3          1 FAD305   0.0000
     9 O3B         15.7570    -2.9030     8.1040 O.3          1 FAD305   0.0000
    10 C2B         16.0500    -3.7860    10.4560 C.3          1 FAD305   0.0000
    11 O2B         15.0820    -4.7800    10.1450 O.3          1 FAD305   0.0000
    12 C1B         17.2410    -4.4550    11.1570 C.3          1 FAD305   0.0000
    13 N9A         17.5830    -3.6840    12.3570 N.pl3        1 FAD305   0.0000
    14 C8A         18.6650    -2.8690    12.3980 C.2          1 FAD305   0.0000
    15 N7A         18.7210    -2.2310    13.6040 N.2          1 FAD305   0.0000
    16 C5A         17.6670    -2.6370    14.3370 C.ar         1 FAD305   0.0000
    17 C6A         17.1790    -2.3000    15.6990 C.ar         1 FAD305   0.0000
    18 N6A         17.9180    -1.4240    16.4170 N.pl3        1 FAD305   0.0000
    19 N1A         16.0480    -2.9240    16.1480 N.ar         1 FAD305   0.0000
    20 C2A         15.3440    -3.7930    15.3610 C.ar         1 FAD305   0.0000
    21 N3A         15.7610    -4.1220    14.1190 N.ar         1 FAD305   0.0000
    22 C4A         16.9030    -3.5990    13.5380 C.ar         1 FAD305   0.0000
    23 N1          23.4420     2.4950    16.6310 N.2          1 FAD305   0.0000
    24 C2          24.4890     3.3450    16.4160 C.2          1 FAD305   0.0000
    25 O2          25.0930     3.1190    15.3420 O.2          1 FAD305   0.0000
    26 N3          24.8180     4.3400    17.2920 N.pl3        1 FAD305   0.0000
    27 C4          24.0650     4.5980    18.4240 C.2          1 FAD305   0.0000
    28 O4          24.2280     5.5140    19.2800 O.2          1 FAD305   0.0000
    29 C4X         22.9370     3.6900    18.7310 C.2          1 FAD305   0.0000
    30 N5          22.1520     3.8720    19.8220 N.2          1 FAD305   0.0000
    31 C5X         21.0900     3.0470    20.0230 C.ar         1 FAD305   0.0000
    32 C6          20.3150     3.2100    21.1230 C.ar         1 FAD305   0.0000
    33 C7          19.2620     2.3410    21.3460 C.ar         1 FAD305   0.0000
    34 C7M         18.3840     2.5190    22.5400 C.3          1 FAD305   0.0000
    35 C8          18.9240     1.2510    20.4050 C.ar         1 FAD305   0.0000
    36 C8M         17.7340     0.3550    20.6330 C.3          1 FAD305   0.0000
    37 C9          19.7120     1.0810    19.3050 C.ar         1 FAD305   0.0000
    38 C9A         20.7770     1.9440    19.0860 C.ar         1 FAD305   0.0000
    39 N10         21.5570     1.7890    17.9390 N.pl3        1 FAD305   0.0000
    40 C10         22.6580     2.6210    17.7410 C.2          1 FAD305   0.0000
    41 C1'         21.2990     0.6750    16.9910 C.3          1 FAD305   0.0000
    42 C2'         20.7250     1.0850    15.6610 C.3          1 FAD305   0.0000
    43 O2'         19.3060     0.9710    15.7390 O.3          1 FAD305   0.0000
    44 C3'         21.2340     0.0750    14.6290 C.3          1 FAD305   0.0000
    45 O3'         21.0450    -1.2860    15.1420 O.3          1 FAD305   0.0000
    46 C4'         22.7100     0.3890    14.2630 C.3          1 FAD305   0.0000
    47 O4'         22.8460     1.7440    13.7480 O.3          1 FAD305   0.0000
    48 C5'         23.2170    -0.6020    13.2320 C.3          1 FAD305   0.0000
    49 O5'         22.2520    -0.6800    12.1940 O.3          1 FAD305   0.0000
    50 P           22.5480    -1.4850    10.8340 P.3          1 FAD305   0.0000
    51 O1P         22.8930    -2.8720    11.3110 O.co2        1 FAD305   0.0000
    52 O2P         23.5030    -0.7120    10.0000 O.co2        1 FAD305  -1.0000
    53 O3P         21.1450    -1.5020    10.0800 O.3          1 FAD305   0.0000
    54 H5B1        19.7948    -4.0711     8.1292 H            1 FAD305   0.0000
    55 H5B2        18.7140    -3.3966     7.1076 H            1 FAD305   0.0000
    56 H4B         17.5167    -4.9159     8.4257 H            1 FAD305   0.0000
    57 H3B         17.0501    -2.2782     9.4628 H            1 FAD305   0.0000
    58 H5          15.3588    -3.7653     7.7912 H            1 FAD305   0.0000
    59 H2B         15.6514    -3.0786    11.0397 H            1 FAD305   0.0000
    60 H7          14.7097    -5.1593    10.9921 H            1 FAD305   0.0000
    61 H1B         17.0265    -5.4026    11.3936 H            1 FAD305   0.0000
    62 H8A         19.3244    -2.7522    11.6554 H            1 FAD305   0.0000
    63 H6A1        17.6306    -1.1656    17.3393 H            1 FAD305   0.0000
    64 H6A2        18.7518    -1.0347    16.0256 H            1 FAD305   0.0000
    65 H2A         14.4991    -4.1951    15.7139 H            1 FAD305   0.0000
    66 H13         25.6271     4.8987    17.1099 H            1 FAD305   0.0000
    67 H14         20.5026     3.9514    21.7673 H            1 FAD305   0.0000
    68 H7M1        17.6800     1.8089    22.5449 H            1 FAD305   0.0000
    69 H7M2        18.9344     2.4485    23.3719 H            1 FAD305   0.0000
    70 H7M3        17.9495     3.4189    22.5031 H            1 FAD305   0.0000
    71 H8M1        17.6742    -0.3146    19.8927 H            1 FAD305   0.0000
    72 H8M2        17.8380    -0.1216    21.5059 H            1 FAD305   0.0000
    73 H8M3        16.9001     0.9066    20.6517 H            1 FAD305   0.0000
    74 H21         19.5239     0.3398    18.6606 H            1 FAD305   0.0000
    75 H1'1        20.6561     0.0431    17.4238 H            1 FAD305   0.0000
    76 H1'2        22.1656     0.2053    16.8224 H            1 FAD305   0.0000
    77 H2'         20.9997     2.0161    15.4208 H            1 FAD305   0.0000
    78 H25         18.9190     1.8368    16.0562 H            1 FAD305   0.0000
    79 H3'         20.6819     0.1733    13.8010 H            1 FAD305   0.0000
    80 H27         20.4482    -1.7959    14.5224 H            1 FAD305   0.0000
    81 H4'         23.2682     0.3041    15.0884 H            1 FAD305   0.0000
    82 H29         23.0266     2.3718    14.5051 H            1 FAD305   0.0000
    83 H5'1        23.3362    -1.5008    13.6539 H            1 FAD305   0.0000
    84 H5'2        24.0914    -0.2894    12.8608 H            1 FAD305   0.0000
@<TRIPOS>BOND
     1    1    2      ar
     2    1    3      ar
     3    1    4       1
     4    1   53       1
     5    4    5       1
     6    5    6       1
     7    6    7       1
     8    6    8       1
     9    7   12       1
    10    8    9       1
    11    8   10       1
    12   10   11       1
    13   10   12       1
    14   12   13       1
    15   13   14       1
    16   13   22       1
    17   14   15       2
    18   15   16       1
    19   16   17      ar
    20   16   22      ar
    21   17   18       1
    22   17   19      ar
    23   19   20      ar
    24   20   21      ar
    25   21   22      ar
    26   23   24       1
    27   23   40       2
    28   24   25       2
    29   24   26       1
    30   26   27       1
    31   27   28       2
    32   27   29       1
    33   29   30       2
    34   29   40       1
    35   30   31       1
    36   31   32      ar
    37   31   38      ar
    38   32   33      ar
    39   33   34       1
    40   33   35      ar
    41   35   36       1
    42   35   37      ar
    43   37   38      ar
    44   38   39       1
    45   39   40       1
    46   39   41       1
    47   41   42       1
    48   42   43       1
    49   42   44       1
    50   44   45       1
    51   44   46       1
    52   46   47       1
    53   46   48       1
    54   48   49       1
    55   49   50       1
    56   50   51      ar
    57   50   52      ar
    58   50   53       1
    59   48   84       1
    60    5   54       1
    61    5   55       1
    62    6   56       1
    63    8   57       1
    64    9   58       1
    65   10   59       1
    66   11   60       1
    67   12   61       1
    68   14   62       1
    69   18   63       1
    70   18   64       1
    71   20   65       1
    72   26   66       1
    73   32   67       1
    74   34   68       1
    75   34   69       1
    76   34   70       1
    77   36   71       1
    78   36   72       1
    79   36   73       1
    80   37   74       1
    81   41   75       1
    82   41   76       1
    83   42   77       1
    84   43   78       1
    85   44   79       1
    86   45   80       1
    87   46   81       1
    88   47   82       1
    89   48   83       1
@<TRIPOS>SUBSTRUCTURE
     1 FAD305      1 GROUP             4 B     FAD     0 **** FAD B 305
