@<TRIPOS>MOLECULE
4ux9_ANP_2_ligand
   44    46     1     0     0
SMALL
NO_CHARGES


@<TRIPOS>ATOM
     1 PG          39.1010    40.2880   119.5150 P.3          1 ANP1000   0.0000
     2 O1G         39.8950    40.4000   120.7830 O.co2        1 ANP1000   0.0000
     3 O2G         37.7310    40.8630   119.7290 O.co2        1 ANP1000  -1.0000
     4 O3G         39.7970    41.0470   118.4210 O.co2        1 ANP1000  -1.0000
     5 PB          39.4130    37.9330   117.7040 P.3          1 ANP1000   0.0000
     6 O1B         39.2330    38.8640   116.5600 O.co2        1 ANP1000   0.0000
     7 O2B         40.9370    37.4900   117.7990 O.co2        1 ANP1000  -1.0000
     8 N3B         38.9730    38.7020   119.0930 N.3          1 ANP1000   0.0000
     9 PA          37.2020    36.0580   118.2230 P.3          1 ANP1000   0.0000
    10 O1A         36.7440    37.0350   119.2450 O.co2        1 ANP1000   0.0000
    11 O2A         36.1000    35.8310   117.1810 O.co2        1 ANP1000  -1.0000
    12 O3A         38.5010    36.6310   117.4910 O.3          1 ANP1000   0.0000
    13 O5'         37.5550    34.6600   118.9320 O.3          1 ANP1000   0.0000
    14 C5'         38.5080    34.5670   120.0090 C.3          1 ANP1000   0.0000
    15 C4'         39.1360    33.1950   120.0560 C.3          1 ANP1000   0.0000
    16 O4'         38.1230    32.1760   120.2070 O.3          1 ANP1000   0.0000
    17 C3'         39.9450    32.7520   118.8420 C.3          1 ANP1000   0.0000
    18 O3'         41.2560    33.2950   118.8460 O.3          1 ANP1000   0.0000
    19 C2'         39.9490    31.2330   119.0140 C.3          1 ANP1000   0.0000
    20 O2'         40.9050    30.7990   119.9810 O.3          1 ANP1000   0.0000
    21 C1'         38.5200    30.9970   119.5200 C.3          1 ANP1000   0.0000
    22 N9          37.5490    30.7130   118.4570 N.pl3        1 ANP1000   0.0000
    23 C8          36.6480    31.5840   117.9050 C.2          1 ANP1000   0.0000
    24 N7          35.8760    31.0450   116.9890 N.2          1 ANP1000   0.0000
    25 C5          36.2970    29.7230   116.9440 C.ar         1 ANP1000   0.0000
    26 C6          35.8390    28.6050   116.2120 C.ar         1 ANP1000   0.0000
    27 N6          34.8230    28.6500   115.3450 N.pl3        1 ANP1000   0.0000
    28 N1          36.4550    27.4190   116.4280 N.ar         1 ANP1000   0.0000
    29 C2          37.4570    27.3630   117.3150 C.ar         1 ANP1000   0.0000
    30 N3          37.9720    28.3450   118.0620 N.ar         1 ANP1000   0.0000
    31 C4          37.3380    29.5090   117.8370 C.ar         1 ANP1000   0.0000
    32 H3B         37.9966    38.5048   119.1813 H            1 ANP1000   0.0000
    33 H5'1        38.0409    34.7431   120.8755 H            1 ANP1000   0.0000
    34 H5'2        39.2248    35.2506   119.8718 H            1 ANP1000   0.0000
    35 H4'         39.7342    33.1566   120.8564 H            1 ANP1000   0.0000
    36 H3'         39.4693    33.0033   117.9991 H            1 ANP1000   0.0000
    37 H6          41.3890    33.8511   118.0256 H            1 ANP1000   0.0000
    38 H2'         40.0965    30.7756   118.1371 H            1 ANP1000   0.0000
    39 H8          40.8714    29.8026   120.0590 H            1 ANP1000   0.0000
    40 H1'         38.5268    30.2329   120.1651 H            1 ANP1000   0.0000
    41 H10         36.5835    32.5447   118.1751 H            1 ANP1000   0.0000
    42 H11         34.5455    27.8227   114.8566 H            1 ANP1000   0.0000
    43 H12         34.3403    29.5110   115.1847 H            1 ANP1000   0.0000
    44 H13         37.8775    26.4636   117.4349 H            1 ANP1000   0.0000
@<TRIPOS>BOND
     1    1    2      ar
     2    1    3      ar
     3    1    4      ar
     4    1    8       1
     5    5    6      ar
     6    5    7      ar
     7    5    8       1
     8    5   12       1
     9    9   10      ar
    10    9   11      ar
    11    9   12       1
    12    9   13       1
    13   13   14       1
    14   14   15       1
    15   15   16       1
    16   15   17       1
    17   16   21       1
    18   17   18       1
    19   17   19       1
    20   19   20       1
    21   19   21       1
    22   21   22       1
    23   22   23       1
    24   22   31       1
    25   23   24       2
    26   24   25       1
    27   25   26      ar
    28   25   31      ar
    29   26   27       1
    30   26   28      ar
    31   28   29      ar
    32   29   30      ar
    33   30   31      ar
    34   29   44       1
    35   27   43       1
    36   27   42       1
    37    8   32       1
    38   23   41       1
    39   14   33       1
    40   14   34       1
    41   15   35       1
    42   17   36       1
    43   18   37       1
    44   19   38       1
    45   20   39       1
    46   21   40       1
@<TRIPOS>SUBSTRUCTURE
     1 ANP1000     1 GROUP             4 A     ANP     0 **** ANP A1000
