@<TRIPOS>MOLECULE
3lcu_SAH_1_ligand
   46    48     1     0     0
SMALL
NO_CHARGES


@<TRIPOS>ATOM
     1 N            8.5910    -1.9530    22.6830 N.4          1 SAH6732   1.0000
     2 CA           7.2210    -1.6910    23.0920 C.3          1 SAH6732   0.0000
     3 CB           6.4860    -1.0800    21.8900 C.3          1 SAH6732   0.0000
     4 CG           6.5040    -1.8810    20.5930 C.3          1 SAH6732   0.0000
     5 SD           5.6630    -1.0990    19.2250 S.3          1 SAH6732   0.0000
     6 C            6.4850    -3.0010    23.5670 C.2          1 SAH6732   0.0000
     7 O            7.0660    -4.0160    23.4090 O.co2        1 SAH6732   0.0000
     8 OXT          5.4390    -3.0710    23.9650 O.co2        1 SAH6732  -1.0000
     9 C5'          6.9830    -0.2940    18.4840 C.3          1 SAH6732   0.0000
    10 C4'          7.5630     1.0610    19.0580 C.3          1 SAH6732   0.0000
    11 O4'          8.5240     1.4670    18.0950 O.3          1 SAH6732   0.0000
    12 C3'          6.5660     2.1910    19.1530 C.3          1 SAH6732   0.0000
    13 O3'          6.3970     2.5750    20.5210 O.3          1 SAH6732   0.0000
    14 C2'          7.1960     3.3030    18.2080 C.3          1 SAH6732   0.0000
    15 O2'          6.9130     4.6220    18.6460 O.3          1 SAH6732   0.0000
    16 C1'          8.6550     2.8990    18.2460 C.3          1 SAH6732   0.0000
    17 N9           9.4850     3.3500    17.2920 N.pl3        1 SAH6732   0.0000
    18 C8           9.2390     3.3810    15.9280 C.2          1 SAH6732   0.0000
    19 N7          10.2390     3.8610    15.2320 N.2          1 SAH6732   0.0000
    20 C5          11.2080     4.1620    16.2290 C.ar         1 SAH6732   0.0000
    21 C6          12.5130     4.7090    16.0240 C.ar         1 SAH6732   0.0000
    22 N6          13.0230     5.0240    14.8290 N.pl3        1 SAH6732   0.0000
    23 N1          13.2230     4.8910    17.1920 N.ar         1 SAH6732   0.0000
    24 C2          12.7320     4.5740    18.4310 C.ar         1 SAH6732   0.0000
    25 N3          11.4770     4.0400    18.6380 N.ar         1 SAH6732   0.0000
    26 C4          10.7790     3.8670    17.4810 C.ar         1 SAH6732   0.0000
    27 H1           9.0965    -2.3527    23.4477 H            1 SAH6732   0.0000
    28 H2           8.5927    -2.5906    21.9126 H            1 SAH6732   0.0000
    29 HA           7.2255    -1.0295    23.8419 H            1 SAH6732   0.0000
    30 HB1          6.9017    -0.1902    21.7017 H            1 SAH6732   0.0000
    31 HB2          5.5298    -0.9522    22.1533 H            1 SAH6732   0.0000
    32 HG1          6.0661    -2.7634    20.7652 H            1 SAH6732   0.0000
    33 HG2          7.4576    -2.0278    20.3302 H            1 SAH6732   0.0000
    34 H5'1         6.7029    -0.1031    17.5432 H            1 SAH6732   0.0000
    35 H5'2         7.7422    -0.9449    18.4802 H            1 SAH6732   0.0000
    36 H4'          8.0004     0.9060    19.9438 H            1 SAH6732   0.0000
    37 H3'          5.6876     1.8935    18.7788 H            1 SAH6732   0.0000
    38 H12          7.0577     3.2896    20.7507 H            1 SAH6732   0.0000
    39 H2'          6.8454     3.1825    17.2793 H            1 SAH6732   0.0000
    40 H14          7.6330     4.9281    19.2688 H            1 SAH6732   0.0000
    41 H1'          9.0363     3.1069    19.1468 H            1 SAH6732   0.0000
    42 H16          8.3830     3.0679    15.5165 H            1 SAH6732   0.0000
    43 H17         13.9458     5.4036    14.7635 H            1 SAH6732   0.0000
    44 H18         12.4816     4.8800    14.0006 H            1 SAH6732   0.0000
    45 H19         13.3140     4.7384    19.2274 H            1 SAH6732   0.0000
    46 H20          9.0263    -1.0959    22.4073 H            1 SAH6732   0.0000
@<TRIPOS>BOND
     1    1    2       1
     2    2    3       1
     3    2    6       1
     4    3    4       1
     5    4    5       1
     6    5    9       1
     7    6    7      ar
     8    6    8      ar
     9    9   10       1
    10   10   11       1
    11   10   12       1
    12   11   16       1
    13   12   13       1
    14   12   14       1
    15   14   15       1
    16   14   16       1
    17   16   17       1
    18   17   18       1
    19   17   26       1
    20   18   19       2
    21   19   20       1
    22   20   21      ar
    23   20   26      ar
    24   21   22       1
    25   21   23      ar
    26   23   24      ar
    27   24   25      ar
    28   25   26      ar
    29    1   27       1
    30    1   28       1
    31    2   29       1
    32    3   30       1
    33    3   31       1
    34    4   32       1
    35    4   33       1
    36    1   46       1
    37    9   34       1
    38    9   35       1
    39   10   36       1
    40   12   37       1
    41   13   38       1
    42   14   39       1
    43   15   40       1
    44   16   41       1
    45   18   42       1
    46   22   43       1
    47   22   44       1
    48   24   45       1
@<TRIPOS>SUBSTRUCTURE
     1 SAH6732     1 GROUP             4 A     SAH     0 **** SAH A6732
