@<TRIPOS>MOLECULE
1p4m_FMN_2_ligand
   50    52     1     0     0
SMALL
NO_CHARGES


@<TRIPOS>ATOM
     1 N1          -1.7930    32.2870    20.8790 N.2          1 FMN401   0.0000
     2 C2          -2.7240    31.7700    21.7770 C.2          1 FMN401   0.0000
     3 O2          -3.7710    31.2340    21.4140 O.2          1 FMN401   0.0000
     4 N3          -2.4790    31.8270    23.1200 N.pl3        1 FMN401   0.0000
     5 C4          -1.3190    32.3870    23.6070 C.2          1 FMN401   0.0000
     6 O4          -1.1230    32.3840    24.8190 O.2          1 FMN401   0.0000
     7 C4A         -0.3880    32.9180    22.7230 C.2          1 FMN401   0.0000
     8 N5           0.7630    33.5010    23.1780 N.2          1 FMN401   0.0000
     9 C5A          1.7080    34.0110    22.3040 C.ar         1 FMN401   0.0000
    10 C6           2.8660    34.5850    22.8640 C.ar         1 FMN401   0.0000
    11 C7           3.8610    35.1160    22.0500 C.ar         1 FMN401   0.0000
    12 C7M          5.0720    35.7150    22.6910 C.3          1 FMN401   0.0000
    13 C8           3.6980    35.0730    20.6540 C.ar         1 FMN401   0.0000
    14 C8M          4.7530    35.6660    19.7410 C.3          1 FMN401   0.0000
    15 C9           2.5280    34.4970    20.1050 C.ar         1 FMN401   0.0000
    16 C9A          1.5100    33.9450    20.9170 C.ar         1 FMN401   0.0000
    17 N10          0.3000    33.3740    20.4510 N.pl3        1 FMN401   0.0000
    18 C10         -0.6130    32.8550    21.3530 C.2          1 FMN401   0.0000
    19 C1'          0.0200    33.2300    18.9750 C.3          1 FMN401   0.0000
    20 C2'          0.2910    34.2130    17.8650 C.3          1 FMN401   0.0000
    21 O2'         -0.5960    35.2900    18.0260 O.3          1 FMN401   0.0000
    22 C3'         -0.0870    33.3980    16.6150 C.3          1 FMN401   0.0000
    23 O3'          0.6540    32.1910    16.5460 O.3          1 FMN401   0.0000
    24 C4'          0.0450    34.1250    15.2800 C.3          1 FMN401   0.0000
    25 O4'         -0.8000    33.4960    14.3390 O.3          1 FMN401   0.0000
    26 C5'          1.4820    34.1070    14.7620 C.3          1 FMN401   0.0000
    27 O5'          1.5510    33.3060    13.6040 O.3          1 FMN401   0.0000
    28 P            1.5440    33.9750    12.1390 P.3          1 FMN401   0.0000
    29 O1P          2.9550    34.2780    11.7740 O.co2        1 FMN401   0.0000
    30 O2P          0.8480    33.0460    11.1070 O.co2        1 FMN401  -1.0000
    31 O3P          0.7080    35.2780    12.2090 O.co2        1 FMN401  -1.0000
    32 H1          -3.1526    31.4562    23.7593 H            1 FMN401   0.0000
    33 H2           2.9739    34.6110    23.8578 H            1 FMN401   0.0000
    34 H7M1         5.6921    36.0518    21.9824 H            1 FMN401   0.0000
    35 H7M2         4.7960    36.4740    23.2807 H            1 FMN401   0.0000
    36 H7M3         5.5377    35.0198    23.2385 H            1 FMN401   0.0000
    37 H8M1         4.4742    35.5470    18.7881 H            1 FMN401   0.0000
    38 H8M2         4.8555    36.6408    19.9391 H            1 FMN401   0.0000
    39 H8M3         5.6252    35.2013    19.8936 H            1 FMN401   0.0000
    40 H9           2.4174    34.4797    19.1113 H            1 FMN401   0.0000
    41 H1'1        -0.9638    33.0586    18.9226 H            1 FMN401   0.0000
    42 H1'2         0.5169    32.4051    18.7055 H            1 FMN401   0.0000
    43 H2'          1.2459    34.5095    17.8480 H            1 FMN401   0.0000
    44 H13         -0.4400    35.9615    17.3016 H            1 FMN401   0.0000
    45 H3'         -1.0490    33.1435    16.7137 H            1 FMN401   0.0000
    46 H15          1.5454    32.3218    16.9800 H            1 FMN401   0.0000
    47 H4'         -0.2471    35.0743    15.3962 H            1 FMN401   0.0000
    48 H17         -0.2524    33.1546    13.5751 H            1 FMN401   0.0000
    49 H5'1         2.0855    33.7305    15.4648 H            1 FMN401   0.0000
    50 H5'2         1.7688    35.0391    14.5408 H            1 FMN401   0.0000
@<TRIPOS>BOND
     1    1    2       1
     2    1   18       2
     3    2    3       2
     4    2    4       1
     5    4    5       1
     6    5    6       2
     7    5    7       1
     8    7    8       2
     9    7   18       1
    10    8    9       1
    11    9   10      ar
    12    9   16      ar
    13   10   11      ar
    14   11   12       1
    15   11   13      ar
    16   13   14       1
    17   13   15      ar
    18   15   16      ar
    19   16   17       1
    20   17   18       1
    21   17   19       1
    22   19   20       1
    23   20   21       1
    24   20   22       1
    25   22   23       1
    26   22   24       1
    27   24   25       1
    28   24   26       1
    29   26   27       1
    30   27   28       1
    31   28   29      ar
    32   28   30      ar
    33   28   31      ar
    34    4   32       1
    35   10   33       1
    36   12   34       1
    37   12   35       1
    38   12   36       1
    39   14   37       1
    40   14   38       1
    41   14   39       1
    42   15   40       1
    43   19   41       1
    44   19   42       1
    45   20   43       1
    46   21   44       1
    47   22   45       1
    48   23   46       1
    49   24   47       1
    50   25   48       1
    51   26   49       1
    52   26   50       1
@<TRIPOS>SUBSTRUCTURE
     1 FMN401      1 GROUP             4 A     FMN     0 **** FMN A 401
