@<TRIPOS>MOLECULE
4kq2_1S3_3_ligand
   26    27     1     0     0
SMALL
NO_CHARGES


@<TRIPOS>ATOM
     1 C1          72.6180    44.5510    66.5970 C.3          1 1S3801   0.0000
     2 O1          72.7600    44.5260    68.0260 O.3          1 1S3801   0.0000
     3 P           73.6850    45.7950    68.4270 P.3          1 1S3801   0.0000
     4 O2P         73.0220    46.6850    69.4560 O.2          1 1S3801   0.0000
     5 O3P         75.0430    45.3280    68.8880 O.3          1 1S3801   0.0000
     6 O5          71.3720    43.9940    66.1220 O.3          1 1S3801   0.0000
     7 C5          70.2030    44.8230    66.2760 C.3          1 1S3801   0.0000
     8 C6          68.9720    44.0840    65.7540 C.3          1 1S3801   0.0000
     9 O6          69.1740    43.6750    64.3980 O.3          1 1S3801   0.0000
    10 C4          70.3910    46.2030    65.6200 C.3          1 1S3801   0.0000
    11 O4          69.2530    47.0580    65.8140 O.3          1 1S3801   0.0000
    12 C3          71.6100    46.8850    66.2310 C.3          1 1S3801   0.0000
    13 O3          71.8910    48.1290    65.5870 O.3          1 1S3801   0.0000
    14 C2          72.8540    46.0040    66.1530 C.3          1 1S3801   0.0000
    15 O2          73.8170    46.5860    67.0300 O.3          1 1S3801   0.0000
    16 H1          73.3577    43.9978    66.2137 H            1 1S3801   0.0000
    17 H2          70.0692    44.9729    67.2556 H            1 1S3801   0.0000
    18 H3          68.1788    44.6912    65.8004 H            1 1S3801   0.0000
    19 H4          68.8074    43.2767    66.3207 H            1 1S3801   0.0000
    20 H5          69.3368    44.4802    63.8277 H            1 1S3801   0.0000
    21 H6          70.5433    46.0800    64.6393 H            1 1S3801   0.0000
    22 H7          68.8070    46.8281    66.6790 H            1 1S3801   0.0000
    23 H8          71.4160    47.0682    67.1948 H            1 1S3801   0.0000
    24 H9          71.3987    48.8642    66.0529 H            1 1S3801   0.0000
    25 H10         73.2086    46.0121    65.2180 H            1 1S3801   0.0000
    26 H3P         75.2771    44.4739    68.4237 H            1 1S3801   0.0000
@<TRIPOS>BOND
     1    1    2       1
     2    1    6       1
     3    1   14       1
     4    2    3       1
     5    3    4       2
     6    3    5       1
     7    3   15       1
     8    6    7       1
     9    7    8       1
    10    7   10       1
    11    8    9       1
    12   10   11       1
    13   10   12       1
    14   12   13       1
    15   12   14       1
    16   14   15       1
    17    1   16       1
    18   14   25       1
    19    7   17       1
    20    8   18       1
    21    8   19       1
    22    9   20       1
    23   10   21       1
    24   11   22       1
    25   12   23       1
    26   13   24       1
    27    5   26       1
@<TRIPOS>SUBSTRUCTURE
     1 1S3801      1 GROUP             4 C     1S3     0 **** 1S3 C 801
