@<TRIPOS>MOLECULE
3pef_NAP_7_ligand
   73    77     1     0     0
SMALL
NO_CHARGES


@<TRIPOS>ATOM
     1 PA          -5.9950    67.3000   -37.4080 P.3          1 NAP301   0.0000
     2 O1A         -6.7250    66.0070   -37.5050 O.co2        1 NAP301   0.0000
     3 O2A         -4.7630    67.3280   -38.2370 O.co2        1 NAP301  -1.0000
     4 O5B         -5.6380    67.5650   -35.8560 O.3          1 NAP301   0.0000
     5 C5B         -6.5950    67.7210   -34.8300 C.3          1 NAP301   0.0000
     6 C4B         -5.8370    67.9960   -33.5290 C.3          1 NAP301   0.0000
     7 O4B         -6.6650    67.7980   -32.3910 O.3          1 NAP301   0.0000
     8 C3B         -4.6460    67.0580   -33.3600 C.3          1 NAP301   0.0000
     9 O3B         -3.6170    67.8060   -32.7690 O.3          1 NAP301   0.0000
    10 C2B         -5.1360    66.0180   -32.3780 C.3          1 NAP301   0.0000
    11 O2B         -4.1130    65.3980   -31.6340 O.3          1 NAP301   0.0000
    12 C1B         -6.0380    66.8790   -31.5100 C.3          1 NAP301   0.0000
    13 N9A         -7.0170    66.0460   -30.7950 N.pl3        1 NAP301   0.0000
    14 C8A         -8.0380    65.3150   -31.3400 C.2          1 NAP301   0.0000
    15 N7A         -8.7010    64.6890   -30.3420 N.2          1 NAP301   0.0000
    16 C5A         -8.1200    65.0230   -29.1680 C.ar         1 NAP301   0.0000
    17 C6A         -8.4010    64.6670   -27.8560 C.ar         1 NAP301   0.0000
    18 N6A         -9.4200    63.8500   -27.5870 N.pl3        1 NAP301   0.0000
    19 N1A         -7.6110    65.1760   -26.8440 N.ar         1 NAP301   0.0000
    20 C2A         -6.5550    66.0230   -27.1300 C.ar         1 NAP301   0.0000
    21 N3A         -6.2790    66.3710   -28.4370 N.ar         1 NAP301   0.0000
    22 C4A         -7.0530    65.8740   -29.4380 C.ar         1 NAP301   0.0000
    23 O3          -7.0010    68.4910   -37.7770 O.3          1 NAP301   0.0000
    24 PN          -6.8340    70.0370   -38.1650 P.3          1 NAP301   0.0000
    25 O1N         -7.2470    70.2360   -39.5640 O.co2        1 NAP301   0.0000
    26 O2N         -5.4860    70.4840   -37.7270 O.co2        1 NAP301  -1.0000
    27 O5D         -8.0360    70.6120   -37.2520 O.3          1 NAP301   0.0000
    28 C5D         -7.9280    71.5070   -36.1690 C.3          1 NAP301   0.0000
    29 C4D         -9.2090    72.3490   -36.0880 C.3          1 NAP301   0.0000
    30 O4D         -9.1970    73.4210   -37.0170 O.3          1 NAP301   0.0000
    31 C3D        -10.4640    71.5380   -36.4080 C.3          1 NAP301   0.0000
    32 O3D        -11.5050    71.9930   -35.5700 O.3          1 NAP301   0.0000
    33 C2D        -10.8020    71.9200   -37.8360 C.3          1 NAP301   0.0000
    34 O2D        -12.1890    71.8160   -38.0590 O.3          1 NAP301   0.0000
    35 C1D        -10.3380    73.3690   -37.8600 C.3          1 NAP301   0.0000
    36 N1N         -9.9800    73.8860   -39.1940 N.ar         1 NAP301   1.0000
    37 C2N         -9.3410    73.0950   -40.1060 C.ar         1 NAP301   0.0000
    38 C3N         -9.0030    73.6290   -41.3430 C.ar         1 NAP301   0.0000
    39 C7N         -8.2070    72.8410   -42.3410 C.2          1 NAP301   0.0000
    40 O7N         -8.2810    73.2450   -43.6800 O.2          1 NAP301   0.0000
    41 N7N         -7.4550    71.8110   -41.9600 N.am         1 NAP301   0.0000
    42 C4N         -9.3170    74.9470   -41.6460 C.ar         1 NAP301   0.0000
    43 C5N         -9.9500    75.7440   -40.7060 C.ar         1 NAP301   0.0000
    44 C6N        -10.2710    75.1880   -39.4770 C.ar         1 NAP301   0.0000
    45 P2B         -3.3720    64.0660   -32.1650 P.3          1 NAP301   0.0000
    46 O1X         -2.8600    63.3440   -30.9420 O.co2        1 NAP301   0.0000
    47 O2X         -4.3020    63.1290   -32.9010 O.co2        1 NAP301  -1.0000
    48 O3X         -2.2180    64.4380   -33.0600 O.co2        1 NAP301  -1.0000
    49 H5B1        -7.1368    66.8854   -34.7390 H            1 NAP301   0.0000
    50 H5B2        -7.1996    68.4890   -35.0414 H            1 NAP301   0.0000
    51 H4B         -5.5103    68.9411   -33.5348 H            1 NAP301   0.0000
    52 H3B         -4.3629    66.6506   -34.2282 H            1 NAP301   0.0000
    53 H5          -3.0454    67.2041   -32.2114 H            1 NAP301   0.0000
    54 H2B         -5.6789    65.3267   -32.8548 H            1 NAP301   0.0000
    55 H1B         -5.4816    67.3805   -30.8475 H            1 NAP301   0.0000
    56 H8A         -8.2569    65.2542   -32.3139 H            1 NAP301   0.0000
    57 H6A1        -9.6202    63.5951   -26.6410 H            1 NAP301   0.0000
    58 H6A2        -9.9839    63.4922   -28.3313 H            1 NAP301   0.0000
    59 H2A         -5.9902    66.3840   -26.3879 H            1 NAP301   0.0000
    60 H5D1        -7.1402    72.1073   -36.3072 H            1 NAP301   0.0000
    61 H5D2        -7.8103    70.9928   -35.3194 H            1 NAP301   0.0000
    62 H4D         -9.2924    72.7227   -35.1642 H            1 NAP301   0.0000
    63 H3D        -10.3086    70.5549   -36.3109 H            1 NAP301   0.0000
    64 H16        -11.2444    71.8619   -34.6135 H            1 NAP301   0.0000
    65 H2D        -10.2881    71.3649   -38.4900 H            1 NAP301   0.0000
    66 H18        -12.4662    72.4823   -38.7512 H            1 NAP301   0.0000
    67 H1D        -11.0558    73.9460   -37.4704 H            1 NAP301   0.0000
    68 H2N         -9.1196    72.1449   -39.8863 H            1 NAP301   0.0000
    69 H7N1        -6.9307    71.2966   -42.6386 H            1 NAP301   0.0000
    70 H7N2        -7.4143    71.5515   -40.9951 H            1 NAP301   0.0000
    71 H4N         -9.0860    75.3216   -42.5439 H            1 NAP301   0.0000
    72 H5N        -10.1703    76.6981   -40.9091 H            1 NAP301   0.0000
    73 H6N        -10.7238    75.7516   -38.7861 H            1 NAP301   0.0000
@<TRIPOS>BOND
     1    1    2      ar
     2    1    3      ar
     3    1    4       1
     4    1   23       1
     5    4    5       1
     6    5    6       1
     7    6    7       1
     8    6    8       1
     9    7   12       1
    10    8    9       1
    11    8   10       1
    12   10   11       1
    13   10   12       1
    14   11   45       1
    15   12   13       1
    16   13   14       1
    17   13   22       1
    18   14   15       2
    19   15   16       1
    20   16   17      ar
    21   16   22      ar
    22   17   18       1
    23   17   19      ar
    24   19   20      ar
    25   20   21      ar
    26   21   22      ar
    27   23   24       1
    28   24   25      ar
    29   24   26      ar
    30   24   27       1
    31   27   28       1
    32   28   29       1
    33   29   30       1
    34   29   31       1
    35   30   35       1
    36   31   32       1
    37   31   33       1
    38   33   34       1
    39   33   35       1
    40   35   36       1
    41   36   37      ar
    42   36   44      ar
    43   37   38      ar
    44   38   39       1
    45   38   42      ar
    46   39   40       2
    47   39   41      am
    48   42   43      ar
    49   43   44      ar
    50   45   46      ar
    51   45   47      ar
    52   45   48      ar
    53   43   72       1
    54    5   49       1
    55    5   50       1
    56    6   51       1
    57    8   52       1
    58    9   53       1
    59   10   54       1
    60   12   55       1
    61   14   56       1
    62   18   57       1
    63   18   58       1
    64   20   59       1
    65   44   73       1
    66   28   60       1
    67   28   61       1
    68   29   62       1
    69   31   63       1
    70   32   64       1
    71   33   65       1
    72   34   66       1
    73   35   67       1
    74   37   68       1
    75   41   69       1
    76   41   70       1
    77   42   71       1
@<TRIPOS>SUBSTRUCTURE
     1 NAP301      1 GROUP             4 G     NAP     0 **** NAP G 301
