@<TRIPOS>MOLECULE
4quv_NDP_2_ligand
   42    44     1     0     0
SMALL
NO_CHARGES


@<TRIPOS>ATOM
     1 PA         -22.3090    17.3330   -18.0340 P.3          1 NDP501   0.0000
     2 O1A        -23.3950    17.0660   -17.0050 O.co2        1 NDP501   0.0000
     3 O2A        -21.1210    18.2240   -17.7090 O.co2        1 NDP501  -1.0000
     4 O5B        -23.0320    17.8280   -19.4010 O.3          1 NDP501   0.0000
     5 C5B        -23.2870    19.2000   -19.7390 C.3          1 NDP501   0.0000
     6 C4B        -24.3530    19.2630   -20.8330 C.3          1 NDP501   0.0000
     7 O4B        -25.6080    19.6350   -20.2490 O.3          1 NDP501   0.0000
     8 C3B        -24.0880    20.2990   -21.9160 C.3          1 NDP501   0.0000
     9 O3B        -23.4190    19.6930   -23.0160 O.3          1 NDP501   0.0000
    10 C2B        -25.4800    20.6830   -22.3490 C.3          1 NDP501   0.0000
    11 O2B        -25.8620    19.6300   -23.2450 O.3          1 NDP501   0.0000
    12 C1B        -26.2760    20.5970   -21.0630 C.3          1 NDP501   0.0000
    13 N9A        -26.3000    21.8740   -20.3010 N.pl3        1 NDP501   0.0000
    14 C8A        -25.2690    22.7210   -20.0480 C.2          1 NDP501   0.0000
    15 N7A        -25.6490    23.8020   -19.2830 N.2          1 NDP501   0.0000
    16 C5A        -26.9630    23.6380   -19.0440 C.ar         1 NDP501   0.0000
    17 C6A        -28.0020    24.3930   -18.3200 C.ar         1 NDP501   0.0000
    18 N6A        -27.6750    25.5540   -17.7060 N.pl3        1 NDP501   0.0000
    19 N1A        -29.2720    23.8940   -18.2990 N.ar         1 NDP501   0.0000
    20 C2A        -29.5850    22.7350   -18.9210 C.ar         1 NDP501   0.0000
    21 N3A        -28.6790    21.9880   -19.5960 N.ar         1 NDP501   0.0000
    22 C4A        -27.3840    22.3810   -19.7040 C.ar         1 NDP501   0.0000
    23 O3         -21.6840    15.9190   -18.4950 O.3          1 NDP501   0.0000
    24 PN         -22.6220    14.7310   -19.0450 P.3          1 NDP501   0.0000
    25 O1N        -24.0660    15.1790   -18.9500 O.co2        1 NDP501   0.0000
    26 O2N        -22.0450    14.2440   -20.3570 O.co2        1 NDP501  -1.0000
    27 O5D        -22.3700    13.5640   -17.9630 O.co2        1 NDP501  -1.0000
    28 P2B        -27.1950    19.5660   -24.1790 P.3          1 NDP501   0.0000
    29 O1X        -28.2810    20.2920   -23.4040 O.co2        1 NDP501   0.0000
    30 O2X        -26.7610    20.2310   -25.4730 O.co2        1 NDP501  -1.0000
    31 O3X        -27.4860    18.0820   -24.3270 O.co2        1 NDP501  -1.0000
    32 H5B1       -22.4441    19.6245   -20.0695 H            1 NDP501   0.0000
    33 H5B2       -23.6109    19.6887   -18.9289 H            1 NDP501   0.0000
    34 H4B        -24.4425    18.3614   -21.2562 H            1 NDP501   0.0000
    35 H3B        -23.5807    21.0843   -21.5611 H            1 NDP501   0.0000
    36 H5         -22.4303    19.7517   -22.8782 H            1 NDP501   0.0000
    37 H2B        -25.5204    21.5882   -22.7722 H            1 NDP501   0.0000
    38 H1B        -27.2094    20.2947   -21.2563 H            1 NDP501   0.0000
    39 H8A        -24.3370    22.5761   -20.3802 H            1 NDP501   0.0000
    40 H6A1       -28.3733    26.0727   -17.2127 H            1 NDP501   0.0000
    41 H6A2       -26.7351    25.8932   -17.7457 H            1 NDP501   0.0000
    42 H2A        -30.5312    22.4138   -18.8807 H            1 NDP501   0.0000
@<TRIPOS>BOND
     1    1    2      ar
     2    1    3      ar
     3    1    4       1
     4    1   23       1
     5    4    5       1
     6    5    6       1
     7    6    7       1
     8    6    8       1
     9    7   12       1
    10    8    9       1
    11    8   10       1
    12   10   11       1
    13   10   12       1
    14   11   28       1
    15   12   13       1
    16   13   14       1
    17   13   22       1
    18   14   15       2
    19   15   16       1
    20   16   17      ar
    21   16   22      ar
    22   17   18       1
    23   17   19      ar
    24   19   20      ar
    25   20   21      ar
    26   21   22      ar
    27   23   24       1
    28   24   25      ar
    29   24   26      ar
    30   24   27      ar
    31   28   29      ar
    32   28   30      ar
    33   28   31      ar
    34   20   42       1
    35    5   32       1
    36    5   33       1
    37    6   34       1
    38    8   35       1
    39    9   36       1
    40   10   37       1
    41   12   38       1
    42   14   39       1
    43   18   40       1
    44   18   41       1
@<TRIPOS>SUBSTRUCTURE
     1 NDP501      1 GROUP             4 B     NDP     0 **** NDP B 501
