@<TRIPOS>MOLECULE
2fcr_FMN_1_ligand
   50    52     1     0     0
SMALL
NO_CHARGES


@<TRIPOS>ATOM
     1 N1          46.6540    23.3850    14.5140 N.2          1 FMN174   0.0000
     2 C2          47.7410    23.1600    15.3500 C.2          1 FMN174   0.0000
     3 O2          47.5380    22.9500    16.6850 O.2          1 FMN174   0.0000
     4 N3          49.0250    23.1800    14.8500 N.pl3        1 FMN174   0.0000
     5 C4          49.2790    23.3900    13.4910 C.2          1 FMN174   0.0000
     6 O4          50.5700    23.3900    13.0080 O.2          1 FMN174   0.0000
     7 C4A         48.1670    23.6430    12.6390 C.2          1 FMN174   0.0000
     8 N5          48.4090    23.8630    11.2980 N.2          1 FMN174   0.0000
     9 C5A         47.2900    23.9850    10.4570 C.ar         1 FMN174   0.0000
    10 C6          47.5190    24.0630     9.0640 C.ar         1 FMN174   0.0000
    11 C7          46.3930    24.1710     8.2290 C.ar         1 FMN174   0.0000
    12 C7M         46.6100    24.3220     6.8250 C.3          1 FMN174   0.0000
    13 C8          45.1030    24.1460     8.7520 C.ar         1 FMN174   0.0000
    14 C8M         43.9460    24.2340     7.9390 C.3          1 FMN174   0.0000
    15 C9          44.8870    24.0730    10.1440 C.ar         1 FMN174   0.0000
    16 C9A         45.9990    23.9800    11.0020 C.ar         1 FMN174   0.0000
    17 N10         45.7450    23.8490    12.3660 N.pl3        1 FMN174   0.0000
    18 C10         46.8640    23.6090    13.1620 C.2          1 FMN174   0.0000
    19 C1'         44.5120    24.0050    12.9800 C.3          1 FMN174   0.0000
    20 C2'         44.0410    25.4600    13.0080 C.3          1 FMN174   0.0000
    21 O2'         44.7850    26.2170    13.9740 O.3          1 FMN174   0.0000
    22 C3'         42.5410    25.4600    13.4350 C.3          1 FMN174   0.0000
    23 O3'         41.7590    24.9470    12.3660 O.3          1 FMN174   0.0000
    24 C4'         42.0260    26.7250    13.9690 C.3          1 FMN174   0.0000
    25 O4'         40.7420    26.5390    14.6110 O.3          1 FMN174   0.0000
    26 C5'         41.9440    27.8040    13.0420 C.3          1 FMN174   0.0000
    27 O5'         41.7210    28.9810    13.8210 O.3          1 FMN174   0.0000
    28 P           41.0660    30.3140    13.0540 P.3          1 FMN174   0.0000
    29 O1P         39.5210    29.9080    12.4910 O.co2        1 FMN174   0.0000
    30 O2P         42.0710    30.8120    11.7870 O.co2        1 FMN174  -1.0000
    31 O3P         40.9200    31.6130    14.1220 O.co2        1 FMN174  -1.0000
    32 H1          49.7938    23.0410    15.4742 H            1 FMN174   0.0000
    33 H2          48.4452    24.0422     8.6875 H            1 FMN174   0.0000
    34 H7M1        45.7289    24.3862     6.3565 H            1 FMN174   0.0000
    35 H7M2        47.1383    25.1543     6.6570 H            1 FMN174   0.0000
    36 H7M3        47.1147    23.5312     6.4788 H            1 FMN174   0.0000
    37 H8M1        43.1298    24.1970     8.5156 H            1 FMN174   0.0000
    38 H8M2        43.9584    25.0969     7.4338 H            1 FMN174   0.0000
    39 H8M3        43.9331    23.4702     7.2937 H            1 FMN174   0.0000
    40 H9          43.9586    24.0871    10.5154 H            1 FMN174   0.0000
    41 H1'1        44.5799    23.6734    13.9210 H            1 FMN174   0.0000
    42 H1'2        43.8367    23.4605    12.4826 H            1 FMN174   0.0000
    43 H2'         44.1395    25.8700    12.1012 H            1 FMN174   0.0000
    44 H13         45.7563    26.1968    13.7370 H            1 FMN174   0.0000
    45 H3'         42.4647    24.7947    14.1777 H            1 FMN174   0.0000
    46 H15         40.7946    24.9430    12.6305 H            1 FMN174   0.0000
    47 H4'         42.6629    27.0122    14.6844 H            1 FMN174   0.0000
    48 H17         40.8376    25.8899    15.3657 H            1 FMN174   0.0000
    49 H5'1        41.1849    27.6591    12.4073 H            1 FMN174   0.0000
    50 H5'2        42.7977    27.8851    12.5276 H            1 FMN174   0.0000
@<TRIPOS>BOND
     1    1    2       1
     2    1   18       2
     3    2    3       2
     4    2    4       1
     5    4    5       1
     6    5    6       2
     7    5    7       1
     8    7    8       2
     9    7   18       1
    10    8    9       1
    11    9   10      ar
    12    9   16      ar
    13   10   11      ar
    14   11   12       1
    15   11   13      ar
    16   13   14       1
    17   13   15      ar
    18   15   16      ar
    19   16   17       1
    20   17   18       1
    21   17   19       1
    22   19   20       1
    23   20   21       1
    24   20   22       1
    25   22   23       1
    26   22   24       1
    27   24   25       1
    28   24   26       1
    29   26   27       1
    30   27   28       1
    31   28   29      ar
    32   28   30      ar
    33   28   31      ar
    34    4   32       1
    35   10   33       1
    36   12   34       1
    37   12   35       1
    38   12   36       1
    39   14   37       1
    40   14   38       1
    41   14   39       1
    42   15   40       1
    43   19   41       1
    44   19   42       1
    45   20   43       1
    46   21   44       1
    47   22   45       1
    48   23   46       1
    49   24   47       1
    50   25   48       1
    51   26   49       1
    52   26   50       1
@<TRIPOS>SUBSTRUCTURE
     1 FMN174      1 GROUP             4 A     FMN     0 **** FMN A 174
