@<TRIPOS>MOLECULE
1s4e_ADP_9_ligand
   39    41     1     0     0
SMALL
NO_CHARGES


@<TRIPOS>ATOM
     1 PB         118.9030   153.1700    68.9690 P.3          1 ADP8400   0.0000
     2 O1B        117.7930   153.0140    69.8960 O.co2        1 ADP8400   0.0000
     3 O2B        119.5220   154.5360    68.7200 O.co2        1 ADP8400  -1.0000
     4 O3B        118.3020   152.9090    67.6170 O.co2        1 ADP8400  -1.0000
     5 PA         120.1070   150.6330    68.7370 P.3          1 ADP8400   0.0000
     6 O1A        120.6280   149.6470    69.6890 O.co2        1 ADP8400   0.0000
     7 O2A        118.8040   150.2280    68.1330 O.co2        1 ADP8400  -1.0000
     8 O3A        120.0110   152.1150    69.3240 O.3          1 ADP8400   0.0000
     9 O5'        121.3730   150.8330    67.8060 O.3          1 ADP8400   0.0000
    10 C5'        121.3960   151.1820    66.4770 C.3          1 ADP8400   0.0000
    11 C4'        122.6010   150.4390    65.9840 C.3          1 ADP8400   0.0000
    12 O4'        122.3710   150.2440    64.6350 O.3          1 ADP8400   0.0000
    13 C3'        123.9230   151.1720    66.0830 C.3          1 ADP8400   0.0000
    14 O3'        124.6620   150.9680    67.2650 O.3          1 ADP8400   0.0000
    15 C2'        124.6240   150.6170    64.8580 C.3          1 ADP8400   0.0000
    16 O2'        125.1480   149.3240    65.0580 O.3          1 ADP8400   0.0000
    17 C1'        123.4890   150.5640    63.8560 C.3          1 ADP8400   0.0000
    18 N9         123.3740   151.8810    63.2260 N.pl3        1 ADP8400   0.0000
    19 C8         122.3990   152.8040    63.3680 C.2          1 ADP8400   0.0000
    20 N7         122.7480   153.8700    62.6120 N.2          1 ADP8400   0.0000
    21 C5         123.9290   153.6240    62.0020 C.ar         1 ADP8400   0.0000
    22 C6         124.7560   154.3410    61.1410 C.ar         1 ADP8400   0.0000
    23 N6         124.3420   155.4720    60.6320 N.pl3        1 ADP8400   0.0000
    24 N1         125.9330   153.8350    60.6660 N.ar         1 ADP8400   0.0000
    25 C2         126.2930   152.5740    61.0610 C.ar         1 ADP8400   0.0000
    26 N3         125.4700   151.8660    61.9130 N.ar         1 ADP8400   0.0000
    27 C4         124.3170   152.3750    62.3840 C.ar         1 ADP8400   0.0000
    28 H5'1       121.5051   152.1694    66.3619 H            1 ADP8400   0.0000
    29 H5'2       120.5659   150.8814    66.0074 H            1 ADP8400   0.0000
    30 H4'        122.6677   149.5555    66.4477 H            1 ADP8400   0.0000
    31 H3'        123.7666   152.1517    65.9574 H            1 ADP8400   0.0000
    32 H5         125.5103   151.4958    67.2230 H            1 ADP8400   0.0000
    33 H2'        125.3393   151.2430    64.5474 H            1 ADP8400   0.0000
    34 H7         124.5847   148.8355    65.7244 H            1 ADP8400   0.0000
    35 H1'        123.6560   149.8566    63.1692 H            1 ADP8400   0.0000
    36 H9         121.5743   152.7162    63.9267 H            1 ADP8400   0.0000
    37 H10        124.9342   155.9885    60.0135 H            1 ADP8400   0.0000
    38 H11        123.4331   155.8205    60.8612 H            1 ADP8400   0.0000
    39 H12        127.1468   152.1689    60.7341 H            1 ADP8400   0.0000
@<TRIPOS>BOND
     1    1    2      ar
     2    1    3      ar
     3    1    4      ar
     4    1    8       1
     5    5    6      ar
     6    5    7      ar
     7    5    8       1
     8    5    9       1
     9    9   10       1
    10   10   11       1
    11   11   12       1
    12   11   13       1
    13   12   17       1
    14   13   14       1
    15   13   15       1
    16   15   16       1
    17   15   17       1
    18   17   18       1
    19   18   19       1
    20   18   27       1
    21   19   20       2
    22   20   21       1
    23   21   22      ar
    24   21   27      ar
    25   22   23       1
    26   22   24      ar
    27   24   25      ar
    28   25   26      ar
    29   26   27      ar
    30   25   39       1
    31   23   38       1
    32   23   37       1
    33   10   28       1
    34   10   29       1
    35   11   30       1
    36   13   31       1
    37   14   32       1
    38   15   33       1
    39   16   34       1
    40   17   35       1
    41   19   36       1
@<TRIPOS>SUBSTRUCTURE
     1 ADP8400     1 GROUP             4 I     ADP     0 **** ADP I8400
