@<TRIPOS>MOLECULE
5di3_GNP_1_ligand
   45    47     1     0     0
SMALL
NO_CHARGES


@<TRIPOS>ATOM
     1 PG          25.8680    -8.1260   -12.6990 P.3          1 GNP201   0.0000
     2 O1G         24.7110    -8.3710   -13.6350 O.co2        1 GNP201   0.0000
     3 O2G         25.8100    -6.8310   -11.9300 O.co2        1 GNP201  -1.0000
     4 O3G         27.1240    -8.2790   -13.5240 O.co2        1 GNP201  -1.0000
     5 N3B         25.8190    -9.3140   -11.6350 N.3          1 GNP201   0.0000
     6 PB          24.5320    -9.6860   -10.7750 P.3          1 GNP201   0.0000
     7 O1B         23.3630    -9.7790   -11.6810 O.co2        1 GNP201   0.0000
     8 O2B         24.4290    -8.7390    -9.6410 O.co2        1 GNP201  -1.0000
     9 O3A         24.7330   -11.0850   -10.1940 O.3          1 GNP201   0.0000
    10 PA          24.3390   -12.3760   -10.9200 P.3          1 GNP201   0.0000
    11 O1A         24.8940   -12.2920   -12.2920 O.co2        1 GNP201   0.0000
    12 O2A         22.8980   -12.7070   -10.7730 O.co2        1 GNP201  -1.0000
    13 O5'         25.0930   -13.5450   -10.1830 O.3          1 GNP201   0.0000
    14 C5'         26.5140   -13.6170   -10.0910 C.3          1 GNP201   0.0000
    15 C4'         26.9180   -15.0060    -9.6240 C.3          1 GNP201   0.0000
    16 O4'         26.3930   -15.2490    -8.2880 O.3          1 GNP201   0.0000
    17 C3'         26.3710   -16.1550   -10.4660 C.3          1 GNP201   0.0000
    18 O3'         27.2720   -17.2390   -10.3910 O.3          1 GNP201   0.0000
    19 C2'         25.0770   -16.4830    -9.7330 C.3          1 GNP201   0.0000
    20 O2'         24.5260   -17.7460   -10.0400 O.3          1 GNP201   0.0000
    21 C1'         25.6220   -16.4360    -8.3150 C.3          1 GNP201   0.0000
    22 N9          24.5870   -16.3740    -7.2880 N.pl3        1 GNP201   0.0000
    23 C8          23.4520   -15.6020    -7.2970 C.2          1 GNP201   0.0000
    24 N7          22.7080   -15.7610    -6.2360 N.2          1 GNP201   0.0000
    25 C5          23.3910   -16.6980    -5.4730 C.2          1 GNP201   0.0000
    26 C6          23.0660   -17.2630    -4.2130 C.2          1 GNP201   0.0000
    27 O6          22.0780   -17.0450    -3.4910 O.2          1 GNP201   0.0000
    28 N1          24.0370   -18.1770    -3.8050 N.pl3        1 GNP201   0.0000
    29 C2          25.1700   -18.4980    -4.5170 C.2          1 GNP201   0.0000
    30 N2          25.9840   -19.4030    -3.9570 N.pl3        1 GNP201   0.0000
    31 N3          25.4870   -17.9740    -5.6950 N.2          1 GNP201   0.0000
    32 C4          24.5520   -17.0850    -6.1100 C.2          1 GNP201   0.0000
    33 H3B         26.0545   -10.1426   -12.1428 H            1 GNP201   0.0000
    34 H5'1        26.8412   -12.9361    -9.4358 H            1 GNP201   0.0000
    35 H5'2        26.9163   -13.4362   -10.9885 H            1 GNP201   0.0000
    36 H4'         27.9159   -15.0652    -9.5989 H            1 GNP201   0.0000
    37 H3'         26.2026   -15.8760   -11.4114 H            1 GNP201   0.0000
    38 H6          26.9247   -17.9997   -10.9394 H            1 GNP201   0.0000
    39 H2'         24.4002   -15.7604    -9.8738 H            1 GNP201   0.0000
    40 H8          23.6835   -17.8780    -9.5178 H            1 GNP201   0.0000
    41 H1'         26.2124   -17.2267    -8.1531 H            1 GNP201   0.0000
    42 H10         23.2179   -14.9788    -8.0432 H            1 GNP201   0.0000
    43 H11         23.8992   -18.6348    -2.9267 H            1 GNP201   0.0000
    44 H12         26.8235   -19.6780    -4.4255 H            1 GNP201   0.0000
    45 H13         25.7520   -19.8034    -3.0705 H            1 GNP201   0.0000
@<TRIPOS>BOND
     1    1    2      ar
     2    1    3      ar
     3    1    4      ar
     4    1    5       1
     5    5    6       1
     6    6    7      ar
     7    6    8      ar
     8    6    9       1
     9    9   10       1
    10   10   11      ar
    11   10   12      ar
    12   10   13       1
    13   13   14       1
    14   14   15       1
    15   15   16       1
    16   15   17       1
    17   16   21       1
    18   17   18       1
    19   17   19       1
    20   19   20       1
    21   19   21       1
    22   21   22       1
    23   22   23       1
    24   22   32       1
    25   23   24       2
    26   24   25       1
    27   25   26       1
    28   25   32       2
    29   26   27       2
    30   26   28       1
    31   28   29       1
    32   29   30       1
    33   29   31       2
    34   31   32       1
    35   30   45       1
    36   30   44       1
    37    5   33       1
    38   28   43       1
    39   23   42       1
    40   14   34       1
    41   14   35       1
    42   15   36       1
    43   17   37       1
    44   18   38       1
    45   19   39       1
    46   20   40       1
    47   21   41       1
@<TRIPOS>SUBSTRUCTURE
     1 GNP201      1 GROUP             4 A     GNP     0 **** GNP A 201
