@<TRIPOS>MOLECULE
3nyr_MLC_1_ligand
   50    49     1     0     0
SMALL
NO_CHARGES


@<TRIPOS>ATOM
     1 O6           8.6930    10.5820    59.8120 O.co2        1 MLC486   0.0000
     2 P2           9.3920     9.7370    60.9910 P.3          1 MLC486   0.0000
     3 O21         10.6010    10.5040    61.4700 O.co2        1 MLC486  -1.0000
     4 O22          8.3230     9.3250    61.9750 O.co2        1 MLC486  -1.0000
     5 O7           9.9040     8.4180    60.2220 O.3          1 MLC486   0.0000
     6 CPB          9.8770     7.1470    60.8680 C.3          1 MLC486   0.0000
     7 CPA         10.3850     6.0780    59.9090 C.3          1 MLC486   0.0000
     8 CP7         11.7110     6.5260    59.3060 C.3          1 MLC486   0.0000
     9 CP9          9.3660     5.8680    58.7950 C.3          1 MLC486   0.0000
    10 CP8         10.5870     4.7700    60.6650 C.3          1 MLC486   0.0000
    11 OP3         12.6410     6.8120    60.3570 O.3          1 MLC486   0.0000
    12 CP6         12.2600     5.4330    58.4370 C.2          1 MLC486   0.0000
    13 OP2         11.7950     5.2320    57.3270 O.2          1 MLC486   0.0000
    14 NP2         13.2600     4.7170    58.9440 N.am         1 MLC486   0.0000
    15 CP5         14.0210     3.7940    58.1250 C.3          1 MLC486   0.0000
    16 CP4         15.5130     4.1070    58.1470 C.3          1 MLC486   0.0000
    17 CP3         16.2720     2.9910    57.4700 C.2          1 MLC486   0.0000
    18 OP1         15.8230     2.4550    56.4700 O.2          1 MLC486   0.0000
    19 NP1         17.4300     2.6420    58.0210 N.am         1 MLC486   0.0000
    20 CP2         18.4240     1.8870    57.2830 C.3          1 MLC486   0.0000
    21 CP1         19.8290     2.4420    57.4850 C.3          1 MLC486   0.0000
    22 S           20.7350     1.3740    58.5530 S.3          1 MLC486   0.0000
    23 CM1         21.3320     0.0900    57.6780 C.2          1 MLC486   0.0000
    24 CM2         22.0750    -1.0190    58.3830 C.3          1 MLC486   0.0000
    25 CM3         21.1590    -2.2070    58.5590 C.2          1 MLC486   0.0000
    26 OM2         21.1660     0.0490    56.4700 O.2          1 MLC486   0.0000
    27 OM3         19.9850    -2.1210    58.1400 O.co2        1 MLC486   0.0000
    28 OM4         21.6100    -3.2300    59.1180 O.co2        1 MLC486  -1.0000
    29 HPB1         8.9393     6.9316    61.1406 H            1 MLC486   0.0000
    30 HPB2        10.4621     7.1727    61.6785 H            1 MLC486   0.0000
    31 HP7         11.5662     7.3484    58.7559 H            1 MLC486   0.0000
    32 HP91         9.6999     5.1662    58.1657 H            1 MLC486   0.0000
    33 HP92         8.4957     5.5744    59.1904 H            1 MLC486   0.0000
    34 HP93         9.2339     6.7257    58.2981 H            1 MLC486   0.0000
    35 HP81        10.9205     4.0688    60.0348 H            1 MLC486   0.0000
    36 HP82        11.2561     4.9071    61.3954 H            1 MLC486   0.0000
    37 HP83         9.7170     4.4759    61.0608 H            1 MLC486   0.0000
    38 HP3         12.9290     7.7677    60.2963 H            1 MLC486   0.0000
    39 HP2         13.4919     4.8177    59.9115 H            1 MLC486   0.0000
    40 HP51        13.6927     3.8528    57.1823 H            1 MLC486   0.0000
    41 HP52        13.8808     2.8657    58.4695 H            1 MLC486   0.0000
    42 HP41        15.8215     4.1930    59.0943 H            1 MLC486   0.0000
    43 HP42        15.6805     4.9657    57.6626 H            1 MLC486   0.0000
    44 HP1         17.6202     2.9062    58.9665 H            1 MLC486   0.0000
    45 HP21        18.1995     1.9234    56.3092 H            1 MLC486   0.0000
    46 HP22        18.4044     0.9369    57.5944 H            1 MLC486   0.0000
    47 HP11        19.7719     3.3526    57.8944 H            1 MLC486   0.0000
    48 HP12        20.2937     2.5023    56.6016 H            1 MLC486   0.0000
    49 HM21        22.3805    -0.6981    59.2795 H            1 MLC486   0.0000
    50 HM22        22.8685    -1.2880    57.8371 H            1 MLC486   0.0000
@<TRIPOS>BOND
     1    1    2      ar
     2    2    3      ar
     3    2    4      ar
     4    2    5       1
     5    5    6       1
     6    6    7       1
     7    7    8       1
     8    7    9       1
     9    7   10       1
    10    8   11       1
    11    8   12       1
    12   12   13       2
    13   12   14      am
    14   14   15       1
    15   15   16       1
    16   16   17       1
    17   17   18       2
    18   17   19      am
    19   19   20       1
    20   20   21       1
    21   21   22       1
    22   22   23       1
    23   23   24       1
    24   23   26       2
    25   24   25       1
    26   25   27      ar
    27   25   28      ar
    28   24   49       1
    29   24   50       1
    30    6   29       1
    31    6   30       1
    32    8   31       1
    33    9   32       1
    34    9   33       1
    35    9   34       1
    36   10   35       1
    37   10   36       1
    38   10   37       1
    39   11   38       1
    40   14   39       1
    41   15   40       1
    42   15   41       1
    43   16   42       1
    44   16   43       1
    45   19   44       1
    46   20   45       1
    47   20   46       1
    48   21   47       1
    49   21   48       1
@<TRIPOS>SUBSTRUCTURE
     1 MLC486      1 GROUP             4 A     MLC     0 **** MLC A 486
