@<TRIPOS>MOLECULE
2efy_4AT_2_ligand
   18    17     1     0     0
SMALL
NO_CHARGES


@<TRIPOS>ATOM
     1 C           24.4630    27.8750    12.7320 C.2          1 4AT914   0.0000
     2 O1          24.7960    28.1000    13.8120 O.co2        1 4AT914   0.0000
     3 O2          24.4970    28.6930    11.7200 O.co2        1 4AT914  -1.0000
     4 CA          23.9150    26.4780    12.3690 C.3          1 4AT914   0.0000
     5 CB          25.0700    25.5980    11.8740 C.3          1 4AT914   0.0000
     6 CG          24.6480    24.2350    12.0290 C.2          1 4AT914   0.0000
     7 C2A         24.7930    21.8570    11.9310 C.3          1 4AT914   0.0000
     8 C1A         25.3930    23.1990    11.7010 C.2          1 4AT914   0.0000
     9 OAC         26.5200    23.3020    11.2310 O.3          1 4AT914   0.0000
    10 HA1         23.2277    26.5650    11.6479 H            1 4AT914   0.0000
    11 HA2         23.4992    26.0611    13.1773 H            1 4AT914   0.0000
    12 HB1         25.8909    25.7684    12.4191 H            1 4AT914   0.0000
    13 HB2         25.2626    25.7916    10.9120 H            1 4AT914   0.0000
    14 HG          23.7384    24.0621    12.4068 H            1 4AT914   0.0000
    15 H2A1        25.4408    21.1494    11.6488 H            1 4AT914   0.0000
    16 H2A2        24.5826    21.7480    12.9025 H            1 4AT914   0.0000
    17 H2A3        23.9523    21.7716    11.3962 H            1 4AT914   0.0000
    18 HAC         27.0422    22.4812    10.9996 H            1 4AT914   0.0000
@<TRIPOS>BOND
     1    1    2      ar
     2    1    3      ar
     3    1    4       1
     4    4    5       1
     5    5    6       1
     6    6    8       2
     7    7    8       1
     8    8    9       1
     9    9   18       1
    10    4   10       1
    11    4   11       1
    12    5   12       1
    13    5   13       1
    14    6   14       1
    15    7   15       1
    16    7   16       1
    17    7   17       1
@<TRIPOS>SUBSTRUCTURE
     1 4AT914      1 GROUP             4 B     4AT     0 **** 4AT B 914
