@<TRIPOS>MOLECULE
3sgt_P09_1_ligand
   45    47     1     0     0
SMALL
NO_CHARGES


@<TRIPOS>ATOM
     1 CAA        -13.3630    -4.3790     0.3300 C.3          1 P091001   0.0000
     2 CAB        -15.1170    -2.1640     1.5530 C.3          1 P091001   0.0000
     3 OAC        -11.0160     7.9790     7.6780 O.co2        1 P091001   0.0000
     4 OAD        -12.2700     4.3590     6.1590 O.2          1 P091001   0.0000
     5 OAE        -10.9450     6.9980     5.6770 O.co2        1 P091001  -1.0000
     6 CAF        -15.2240     8.1420     7.5260 C.ar         1 P091001   0.0000
     7 CAG        -15.8910     7.0690     6.9320 C.ar         1 P091001   0.0000
     8 CAH        -13.8370     8.2560     7.4700 C.ar         1 P091001   0.0000
     9 CAI        -15.1450     6.1150     6.2670 C.ar         1 P091001   0.0000
    10 CAJ        -11.5760    -2.6340     0.1730 C.ar         1 P091001   0.0000
    11 CAK        -12.1750     2.8060     4.0030 C.ar         1 P091001   0.0000
    12 CAL        -12.7240     4.0460     2.0130 C.ar         1 P091001   0.0000
    13 CAM        -11.0640    -1.3600     0.3270 C.ar         1 P091001   0.0000
    14 CAN        -11.6930     1.7480     3.1980 C.ar         1 P091001   0.0000
    15 CAO        -12.2450     3.0110     1.2200 C.ar         1 P091001   0.0000
    16 CAP        -13.1700    -0.6100     1.2720 C.ar         1 P091001   0.0000
    17 NAQ        -13.2160     4.9720     4.1560 N.am         1 P091001   0.0000
    18 OAR        -11.2650     0.8610     0.9940 O.3          1 P091001   0.0000
    19 CAS        -11.5520     7.3950     6.7190 C.2          1 P091001   0.0000
    20 CAT        -13.0140     5.0830     5.4680 C.2          1 P091001   0.0000
    21 CAU        -12.8880    -2.9250     0.5530 C.ar         1 P091001   0.0000
    22 CAV        -13.6900    -1.9060     1.0880 C.ar         1 P091001   0.0000
    23 CAW        -12.6830     3.9670     3.4090 C.ar         1 P091001   0.0000
    24 CAX        -11.7550     1.8470     1.8110 C.ar         1 P091001   0.0000
    25 CAY        -11.8760    -0.3440     0.8710 C.ar         1 P091001   0.0000
    26 CAZ        -13.0910     7.2660     6.7990 C.ar         1 P091001   0.0000
    27 CBA        -13.7660     6.2240     6.1820 C.ar         1 P091001   0.0000
    28 HAA1       -14.3106    -4.4708     0.6361 H            1 P091001   0.0000
    29 HAA2       -13.3037    -4.6036    -0.6426 H            1 P091001   0.0000
    30 HAA3       -12.7820    -5.0033     0.8523 H            1 P091001   0.0000
    31 HAB1       -15.3617    -3.1154     1.3660 H            1 P091001   0.0000
    32 HAB2       -15.1842    -1.9895     2.5354 H            1 P091001   0.0000
    33 HAB3       -15.7422    -1.5565     1.0630 H            1 P091001   0.0000
    34 HAF        -15.7536     8.8440     8.0021 H            1 P091001   0.0000
    35 HAG        -16.8866     6.9926     6.9866 H            1 P091001   0.0000
    36 HAH        -13.3756     9.0315     7.9010 H            1 P091001   0.0000
    37 HAI        -15.6058     5.3361     5.8417 H            1 P091001   0.0000
    38 HAJ        -11.0014    -3.3549    -0.2144 H            1 P091001   0.0000
    39 HAK        -12.1528     2.7244     4.9994 H            1 P091001   0.0000
    40 HAL        -13.1049     4.8620     1.5782 H            1 P091001   0.0000
    41 HAM        -10.1230    -1.1598     0.0542 H            1 P091001   0.0000
    42 HAN        -11.3080     0.9296     3.6247 H            1 P091001   0.0000
    43 HAO        -12.2516     3.1008     0.2241 H            1 P091001   0.0000
    44 HAP        -13.7300     0.1070     1.6871 H            1 P091001   0.0000
    45 HAQ        -13.7841     5.6571     3.7000 H            1 P091001   0.0000
@<TRIPOS>BOND
     1    1   21       1
     2    2   22       1
     3    3   19      ar
     4    4   20       2
     5    5   19      ar
     6    6    7      ar
     7    6    8      ar
     8    7    9      ar
     9    8   26      ar
    10    9   27      ar
    11   10   13      ar
    12   10   21      ar
    13   11   14      ar
    14   11   23      ar
    15   12   15      ar
    16   12   23      ar
    17   13   25      ar
    18   14   24      ar
    19   15   24      ar
    20   16   22      ar
    21   16   25      ar
    22   17   20      am
    23   17   23       1
    24   18   24       1
    25   18   25       1
    26   19   26       1
    27   20   27       1
    28   21   22      ar
    29   26   27      ar
    30    1   28       1
    31    1   29       1
    32    1   30       1
    33    2   31       1
    34    2   32       1
    35    2   33       1
    36   17   45       1
    37    6   34       1
    38    7   35       1
    39    8   36       1
    40    9   37       1
    41   10   38       1
    42   11   39       1
    43   12   40       1
    44   13   41       1
    45   14   42       1
    46   15   43       1
    47   16   44       1
@<TRIPOS>SUBSTRUCTURE
     1 P091001     1 GROUP             4 B     P09     0 **** P09 B1001
