@<TRIPOS>MOLECULE
2x0f_TRH_1_ligand
   59    61     1     0     0
SMALL
NO_CHARGES


@<TRIPOS>ATOM
     1 O4P        -14.7370     5.9760   -11.6750 O.co2        1 TRH416   0.0000
     2 P2         -13.3380     6.4170   -11.7280 P.3          1 TRH416   0.0000
     3 O3P        -13.1860     7.9570   -12.1370 O.co2        1 TRH416  -1.0000
     4 O1         -12.5280     5.6280   -12.8250 O.3          1 TRH416   0.0000
     5 C1         -13.0140     4.3950   -13.2930 C.3          1 TRH416   0.0000
     6 C2         -11.7870     3.5590   -13.6140 C.3          1 TRH416   0.0000
     7 O2         -10.9750     4.2790   -14.5320 O.3          1 TRH416   0.0000
     8 C3         -12.2170     2.2460   -14.2430 C.3          1 TRH416   0.0000
     9 O3         -11.0650     1.5000   -14.6200 O.3          1 TRH416   0.0000
    10 C4         -13.0920     2.5330   -15.4550 C.3          1 TRH416   0.0000
    11 O4         -13.5900     1.3130   -16.0030 O.3          1 TRH416   0.0000
    12 C5         -14.2510     3.4350   -15.0360 C.3          1 TRH416   0.0000
    13 O5         -13.6980     4.6460   -14.5140 O.3          1 TRH416   0.0000
    14 C6         -15.1210     3.8050   -16.2340 C.3          1 TRH416   0.0000
    15 OPP        -12.5460     6.1800   -10.3480 O.3          1 TRH416   0.0000
    16 P          -11.7980     7.3450    -9.5480 P.3          1 TRH416   0.0000
    17 O1P        -12.6910     8.4210    -9.1040 O.co2        1 TRH416   0.0000
    18 O2P        -11.0440     6.6220    -8.3480 O.co2        1 TRH416  -1.0000
    19 O5'        -10.6220     7.9090   -10.4410 O.3          1 TRH416   0.0000
    20 C5'         -9.6070     7.0650   -10.9280 C.3          1 TRH416   0.0000
    21 C4'         -9.4420     7.2950   -12.4100 C.3          1 TRH416   0.0000
    22 O4'         -9.0160     8.6270   -12.5810 O.3          1 TRH416   0.0000
    23 C3'         -8.2860     6.4610   -12.9060 C.3          1 TRH416   0.0000
    24 O3'         -8.7920     5.2270   -13.4040 O.3          1 TRH416   0.0000
    25 C2'         -7.7560     7.2950   -14.0580 C.3          1 TRH416   0.0000
    26 C1'         -8.3570     8.6780   -13.8400 C.3          1 TRH416   0.0000
    27 N11         -7.2310     9.6000   -13.6310 N.pl3        1 TRH416   0.0000
    28 C21         -6.9990    10.6530   -14.5100 C.2          1 TRH416   0.0000
    29 O21         -7.8110    10.8390   -15.5770 O.2          1 TRH416   0.0000
    30 N31         -5.9750    11.4850   -14.3070 N.pl3        1 TRH416   0.0000
    31 C41         -5.1550    11.3350   -13.2670 C.2          1 TRH416   0.0000
    32 O41         -4.1320    12.2000   -13.1000 O.2          1 TRH416   0.0000
    33 C51         -5.3400    10.3060   -12.3600 C.2          1 TRH416   0.0000
    34 C5A         -4.3960    10.1430   -11.1740 C.3          1 TRH416   0.0000
    35 C61         -6.3890     9.4250   -12.5380 C.2          1 TRH416   0.0000
    36 H1         -13.6039     3.9478   -12.6207 H            1 TRH416   0.0000
    37 H2         -11.2718     3.3794   -12.7759 H            1 TRH416   0.0000
    38 H3         -10.0750     4.4391   -14.1265 H            1 TRH416   0.0000
    39 H4         -12.7440     1.7200   -13.5755 H            1 TRH416   0.0000
    40 H5         -11.3488     0.6352   -15.0343 H            1 TRH416   0.0000
    41 H6         -12.5459     3.0035   -16.1481 H            1 TRH416   0.0000
    42 H7         -12.9328     0.5786   -15.8335 H            1 TRH416   0.0000
    43 H8         -14.8040     2.9811   -14.3373 H            1 TRH416   0.0000
    44 H9         -15.8704     4.3944   -15.9324 H            1 TRH416   0.0000
    45 H10        -14.5673     4.2899   -16.9110 H            1 TRH416   0.0000
    46 H11        -15.4954     2.9731   -16.6437 H            1 TRH416   0.0000
    47 H5'1        -9.8571     6.1109   -10.7630 H            1 TRH416   0.0000
    48 H5'2        -8.7476     7.2701   -10.4596 H            1 TRH416   0.0000
    49 H4'        -10.2843     7.1041   -12.9141 H            1 TRH416   0.0000
    50 H3'         -7.5947     6.3220   -12.1969 H            1 TRH416   0.0000
    51 H16         -8.0340     4.6655   -13.7358 H            1 TRH416   0.0000
    52 H2'1        -8.0526     6.9154   -14.9343 H            1 TRH416   0.0000
    53 H2'2        -6.7572     7.3363   -14.0336 H            1 TRH416   0.0000
    54 H1'         -8.9607     8.9625   -14.5847 H            1 TRH416   0.0000
    55 H20         -5.8199    12.2363   -14.9485 H            1 TRH416   0.0000
    56 H5A1        -4.6787     9.3537   -10.6290 H            1 TRH416   0.0000
    57 H5A2        -3.4637    10.0015   -11.5070 H            1 TRH416   0.0000
    58 H5A3        -4.4264    10.9669   -10.6081 H            1 TRH416   0.0000
    59 H24         -6.5401     8.6757   -11.8932 H            1 TRH416   0.0000
@<TRIPOS>BOND
     1    1    2      ar
     2    2    3      ar
     3    2    4       1
     4    2   15       1
     5    4    5       1
     6    5    6       1
     7    5   13       1
     8    6    7       1
     9    6    8       1
    10    8    9       1
    11    8   10       1
    12   10   11       1
    13   10   12       1
    14   12   13       1
    15   12   14       1
    16   15   16       1
    17   16   17      ar
    18   16   18      ar
    19   16   19       1
    20   19   20       1
    21   20   21       1
    22   21   22       1
    23   21   23       1
    24   22   26       1
    25   23   24       1
    26   23   25       1
    27   25   26       1
    28   26   27       1
    29   27   28       1
    30   27   35       1
    31   28   29       2
    32   28   30       1
    33   30   31       1
    34   31   32       2
    35   31   33       1
    36   33   34       1
    37   33   35       2
    38   35   59       1
    39    5   36       1
    40    6   37       1
    41    7   38       1
    42    8   39       1
    43    9   40       1
    44   10   41       1
    45   11   42       1
    46   12   43       1
    47   14   44       1
    48   14   45       1
    49   14   46       1
    50   34   58       1
    51   20   47       1
    52   20   48       1
    53   21   49       1
    54   23   50       1
    55   24   51       1
    56   25   52       1
    57   25   53       1
    58   26   54       1
    59   30   55       1
    60   34   56       1
    61   34   57       1
@<TRIPOS>SUBSTRUCTURE
     1 TRH416      1 GROUP             4 A     TRH     0 **** TRH A 416
