@<TRIPOS>MOLECULE
2oo5_TXD_2_ligand
   70    74     1     0     0
SMALL
NO_CHARGES


@<TRIPOS>ATOM
     1 O7N         59.5190    51.0830   137.1460 O.2          1 TXD600   0.0000
     2 C7N         58.8830    50.2450   137.7690 C.2          1 TXD600   0.0000
     3 N7N         59.1590    49.9950   139.0470 N.am         1 TXD600   0.0000
     4 C3N         57.7710    49.4980   137.0740 C.ar         1 TXD600   0.0000
     5 C2N         56.7560    48.8620   137.7810 C.ar         1 TXD600   0.0000
     6 C4N         57.7660    49.4450   135.5670 C.ar         1 TXD600   0.0000
     7 C5N         56.6530    48.7150   134.9980 C.ar         1 TXD600   0.0000
     8 C6N         55.7090    48.1170   135.8080 C.ar         1 TXD600   0.0000
     9 N1N         55.7690    48.2010   137.1430 N.ar         1 TXD600   1.0000
    10 C1'A        54.7180    47.5440   137.9200 C.3          1 TXD600   0.0000
    11 O4'A        54.6020    46.1610   137.5840 O.3          1 TXD600   0.0000
    12 C2'A        53.3320    48.1160   137.6630 C.3          1 TXD600   0.0000
    13 O2'A        53.1420    49.3770   138.3010 O.3          1 TXD600   0.0000
    14 C3'A        52.4670    47.0000   138.2060 C.3          1 TXD600   0.0000
    15 O3'A        52.2440    47.1730   139.6080 O.3          1 TXD600   0.0000
    16 C4'A        53.2840    45.7320   137.9530 C.3          1 TXD600   0.0000
    17 C5'A        52.6920    44.8150   136.8800 C.3          1 TXD600   0.0000
    18 O5'A        52.4670    45.5030   135.6490 O.3          1 TXD600   0.0000
    19 PN          51.9280    44.7200   134.3400 P.3          1 TXD600   0.0000
    20 O1N         51.6900    45.7460   133.2640 O.co2        1 TXD600   0.0000
    21 O2N         52.8150    43.5420   134.0500 O.co2        1 TXD600  -1.0000
    22 O3          50.5060    44.1230   134.7960 O.3          1 TXD600   0.0000
    23 PA          49.9320    42.7610   134.1500 P.3          1 TXD600   0.0000
    24 O2P         50.2610    41.6140   135.0750 O.co2        1 TXD600   0.0000
    25 O1P         50.3300    42.6720   132.6980 O.co2        1 TXD600  -1.0000
    26 O5'         48.3430    43.0020   134.2120 O.3          1 TXD600   0.0000
    27 C5'         47.7810    44.1900   133.6610 C.3          1 TXD600   0.0000
    28 C4'         46.8160    44.8340   134.6430 C.3          1 TXD600   0.0000
    29 C3'         47.3730    45.0690   136.0460 C.3          1 TXD600   0.0000
    30 O3'         47.4290    46.4760   136.2990 O.3          1 TXD600   0.0000
    31 C2'         46.3990    44.3630   136.9720 C.3          1 TXD600   0.0000
    32 O2'         46.1120    45.1130   138.1500 O.3          1 TXD600   0.0000
    33 C1'         45.1600    44.2190   136.1040 C.3          1 TXD600   0.0000
    34 O4'         45.6740    43.9970   134.7990 O.3          1 TXD600   0.0000
    35 N9A         44.2280    43.1350   136.4990 N.pl3        1 TXD600   0.0000
    36 C4A         42.9060    43.2890   136.5790 C.ar         1 TXD600   0.0000
    37 N3A         42.0810    44.3490   136.3630 N.ar         1 TXD600   0.0000
    38 C2A         40.7470    44.2390   136.5210 C.ar         1 TXD600   0.0000
    39 N1A         40.1680    43.0780   136.8860 N.ar         1 TXD600   0.0000
    40 C6A         40.9100    41.9700   137.1250 C.ar         1 TXD600   0.0000
    41 N6A         40.3390    40.7980   137.4990 N.pl3        1 TXD600   0.0000
    42 C5A         42.3800    42.0700   136.9600 C.ar         1 TXD600   0.0000
    43 N7A         43.3990    41.2030   137.0960 N.2          1 TXD600   0.0000
    44 C8A         44.5330    41.8680   136.8060 C.2          1 TXD600   0.0000
    45 H7N1        58.6324    49.3075   139.5470 H            1 TXD600   0.0000
    46 H7N2        59.8929    50.4947   139.5071 H            1 TXD600   0.0000
    47 H2N         56.7583    48.8956   138.7804 H            1 TXD600   0.0000
    48 H4N         58.4726    49.8780   135.0074 H            1 TXD600   0.0000
    49 H5N         56.5669    48.6430   134.0043 H            1 TXD600   0.0000
    50 H6N         54.9595    47.6069   135.3862 H            1 TXD600   0.0000
    51 H7          54.9307    47.6272   138.8936 H            1 TXD600   0.0000
    52 H8          53.1829    48.2100   136.6786 H            1 TXD600   0.0000
    53 H9          52.2210    49.7140   138.1057 H            1 TXD600   0.0000
    54 H10         51.5968    46.9602   137.7149 H            1 TXD600   0.0000
    55 H11         51.6714    46.4274   139.9489 H            1 TXD600   0.0000
    56 H12         53.3459    45.2190   138.8091 H            1 TXD600   0.0000
    57 H13         51.8206    44.4526   137.2107 H            1 TXD600   0.0000
    58 H14         53.3264    44.0596   136.7158 H            1 TXD600   0.0000
    59 H5'1        47.2900    43.9615   132.8204 H            1 TXD600   0.0000
    60 H5'2        48.5163    44.8349   133.4527 H            1 TXD600   0.0000
    61 H4'         46.5184    45.7118   134.2676 H            1 TXD600   0.0000
    62 H3'         48.2842    44.6656   136.1290 H            1 TXD600   0.0000
    63 H19         46.5094    46.8633   136.2333 H            1 TXD600   0.0000
    64 H2'         46.7524    43.4604   137.2177 H            1 TXD600   0.0000
    65 H21         45.7083    45.9918   137.8956 H            1 TXD600   0.0000
    66 H1'         44.6628    45.0866   136.1091 H            1 TXD600   0.0000
    67 H2A         40.1709    45.0410   136.3630 H            1 TXD600   0.0000
    68 H6A1        40.9105    39.9952   137.6691 H            1 TXD600   0.0000
    69 H6A2        39.3465    40.7366   137.6046 H            1 TXD600   0.0000
    70 H8A         45.4540    41.4787   136.8179 H            1 TXD600   0.0000
@<TRIPOS>BOND
     1    1    2       2
     2    2    3      am
     3    2    4       1
     4    4    5      ar
     5    4    6      ar
     6    5    9      ar
     7    6    7      ar
     8    7    8      ar
     9    8    9      ar
    10    9   10       1
    11   10   11       1
    12   10   12       1
    13   11   16       1
    14   12   13       1
    15   12   14       1
    16   14   15       1
    17   14   16       1
    18   16   17       1
    19   17   18       1
    20   18   19       1
    21   19   20      ar
    22   19   21      ar
    23   19   22       1
    24   22   23       1
    25   23   24      ar
    26   23   25      ar
    27   23   26       1
    28   26   27       1
    29   27   28       1
    30   28   29       1
    31   28   34       1
    32   29   30       1
    33   29   31       1
    34   31   32       1
    35   31   33       1
    36   33   34       1
    37   33   35       1
    38   35   36       1
    39   35   44       1
    40   36   37      ar
    41   36   42      ar
    42   37   38      ar
    43   38   39      ar
    44   39   40      ar
    45   40   41       1
    46   40   42      ar
    47   42   43       1
    48   43   44       2
    49    3   45       1
    50    3   46       1
    51    5   47       1
    52    6   48       1
    53    7   49       1
    54    8   50       1
    55   10   51       1
    56   12   52       1
    57   13   53       1
    58   14   54       1
    59   15   55       1
    60   16   56       1
    61   17   57       1
    62   17   58       1
    63   44   70       1
    64   41   69       1
    65   27   59       1
    66   27   60       1
    67   28   61       1
    68   29   62       1
    69   30   63       1
    70   31   64       1
    71   32   65       1
    72   33   66       1
    73   38   67       1
    74   41   68       1
@<TRIPOS>SUBSTRUCTURE
     1 TXD600      1 GROUP             4 B     TXD     0 **** TXD B 600
