@<TRIPOS>MOLECULE
1cdo_NAD_2_ligand
   70    74     1     0     0
SMALL
NO_CHARGES


@<TRIPOS>ATOM
     1 PA          16.6610    28.9700    60.5950 P.3          1 NAD375   0.0000
     2 O1A         17.3090    30.2990    60.6780 O.co2        1 NAD375   0.0000
     3 O2A         15.8630    28.4030    61.7050 O.co2        1 NAD375  -1.0000
     4 O5B         17.7410    27.8640    60.0840 O.3          1 NAD375   0.0000
     5 C5B         18.7770    28.1580    59.1150 C.3          1 NAD375   0.0000
     6 C4B         19.9580    27.1930    59.2790 C.3          1 NAD375   0.0000
     7 O4B         20.9070    27.4240    58.2240 O.3          1 NAD375   0.0000
     8 C3B         20.7510    27.3770    60.5850 C.3          1 NAD375   0.0000
     9 O3B         20.9180    26.1330    61.2740 O.3          1 NAD375   0.0000
    10 C2B         22.1470    27.8700    60.2010 C.3          1 NAD375   0.0000
    11 O2B         23.2040    27.5120    61.1490 O.3          1 NAD375   0.0000
    12 C1B         22.2310    27.2790    58.7840 C.3          1 NAD375   0.0000
    13 N9A         23.2650    27.9050    57.9270 N.pl3        1 NAD375   0.0000
    14 C8A         23.5200    29.2150    57.7610 C.2          1 NAD375   0.0000
    15 N7A         24.4890    29.4320    56.8630 N.2          1 NAD375   0.0000
    16 C5A         24.8150    28.2060    56.4930 C.ar         1 NAD375   0.0000
    17 C6A         25.7880    27.9040    55.5640 C.ar         1 NAD375   0.0000
    18 N6A         26.5170    28.8510    54.9750 N.pl3        1 NAD375   0.0000
    19 N1A         25.9730    26.5980    55.3120 N.ar         1 NAD375   0.0000
    20 C2A         25.2760    25.6400    55.9200 C.ar         1 NAD375   0.0000
    21 N3A         24.3410    25.9400    56.8210 N.ar         1 NAD375   0.0000
    22 C4A         24.0880    27.2340    57.1280 C.ar         1 NAD375   0.0000
    23 O3          15.6370    29.1640    59.3980 O.3          1 NAD375   0.0000
    24 PN          14.3240    28.4090    58.9310 P.3          1 NAD375   0.0000
    25 O1N         13.1890    28.9250    59.7220 O.co2        1 NAD375   0.0000
    26 O2N         14.6340    26.9500    58.8880 O.co2        1 NAD375  -1.0000
    27 O5D         14.1050    28.9700    57.4300 O.3          1 NAD375   0.0000
    28 C5D         15.2140    29.1650    56.5400 C.3          1 NAD375   0.0000
    29 C4D         14.8030    29.7760    55.2140 C.3          1 NAD375   0.0000
    30 O4D         13.5010    29.3500    54.7690 O.3          1 NAD375   0.0000
    31 C3D         14.7520    31.2900    55.2900 C.3          1 NAD375   0.0000
    32 O3D         15.9560    31.8930    54.7970 O.3          1 NAD375   0.0000
    33 C2D         13.5750    31.6690    54.4010 C.3          1 NAD375   0.0000
    34 O2D         13.9660    32.5410    53.3320 O.3          1 NAD375   0.0000
    35 C1D         13.0400    30.3640    53.8430 C.3          1 NAD375   0.0000
    36 N1N         11.5670    30.3400    53.6490 N.ar         1 NAD375   1.0000
    37 C2N         11.0280    29.8400    52.4410 C.ar         1 NAD375   0.0000
    38 C3N          9.6390    29.7580    52.2580 C.ar         1 NAD375   0.0000
    39 C7N          9.0110    29.1820    50.9720 C.2          1 NAD375   0.0000
    40 O7N          7.7970    28.9400    50.9340 O.2          1 NAD375   0.0000
    41 N7N          9.8490    28.9580    49.9530 N.am         1 NAD375   0.0000
    42 C4N          8.7950    30.1860    53.2970 C.ar         1 NAD375   0.0000
    43 C5N          9.3230    30.6860    54.4940 C.ar         1 NAD375   0.0000
    44 C6N         10.7010    30.7660    54.6780 C.ar         1 NAD375   0.0000
    45 H5B1        19.0973    29.0956    59.2504 H            1 NAD375   0.0000
    46 H5B2        18.4012    28.0640    58.1931 H            1 NAD375   0.0000
    47 H4B         19.6255    26.2515    59.2241 H            1 NAD375   0.0000
    48 H3B         20.2973    28.0437    61.1763 H            1 NAD375   0.0000
    49 H5          21.4145    25.4919    60.6888 H            1 NAD375   0.0000
    50 H2B         22.1181    28.8666    60.1244 H            1 NAD375   0.0000
    51 H7          23.5975    26.6293    60.8919 H            1 NAD375   0.0000
    52 H1B         22.4349    26.3031    58.8615 H            1 NAD375   0.0000
    53 H8A         23.0411    29.9430    58.2517 H            1 NAD375   0.0000
    54 H6A1        27.2155    28.6000    54.3049 H            1 NAD375   0.0000
    55 H6A2        26.3656    29.8128    55.2030 H            1 NAD375   0.0000
    56 H2A         25.4567    24.6820    55.6974 H            1 NAD375   0.0000
    57 H5D1        15.6424    28.2786    56.3643 H            1 NAD375   0.0000
    58 H5D2        15.8744    29.7728    56.9809 H            1 NAD375   0.0000
    59 H4D         15.4761    29.5153    54.5220 H            1 NAD375   0.0000
    60 H3D         14.5809    31.5820    56.2310 H            1 NAD375   0.0000
    61 H17         16.7274    31.2773    54.9582 H            1 NAD375   0.0000
    62 H2D         12.8681    32.1119    54.9525 H            1 NAD375   0.0000
    63 H19         14.9474    32.7230    53.3923 H            1 NAD375   0.0000
    64 H1D         13.4751    30.2004    52.9576 H            1 NAD375   0.0000
    65 H2N         11.6423    29.5421    51.7103 H            1 NAD375   0.0000
    66 H7N1         9.5015    28.5853    49.0926 H            1 NAD375   0.0000
    67 H7N2        10.8227    29.1633    50.0520 H            1 NAD375   0.0000
    68 H4N          7.8033    30.1328    53.1800 H            1 NAD375   0.0000
    69 H5N          8.7064    30.9875    55.2213 H            1 NAD375   0.0000
    70 H6N         11.0744    31.1232    55.5342 H            1 NAD375   0.0000
@<TRIPOS>BOND
     1    1    2      ar
     2    1    3      ar
     3    1    4       1
     4    1   23       1
     5    4    5       1
     6    5    6       1
     7    6    7       1
     8    6    8       1
     9    7   12       1
    10    8    9       1
    11    8   10       1
    12   10   11       1
    13   10   12       1
    14   12   13       1
    15   13   14       1
    16   13   22       1
    17   14   15       2
    18   15   16       1
    19   16   17      ar
    20   16   22      ar
    21   17   18       1
    22   17   19      ar
    23   19   20      ar
    24   20   21      ar
    25   21   22      ar
    26   23   24       1
    27   24   25      ar
    28   24   26      ar
    29   24   27       1
    30   27   28       1
    31   28   29       1
    32   29   30       1
    33   29   31       1
    34   30   35       1
    35   31   32       1
    36   31   33       1
    37   33   34       1
    38   33   35       1
    39   35   36       1
    40   36   37      ar
    41   36   44      ar
    42   37   38      ar
    43   38   39       1
    44   38   42      ar
    45   39   40       2
    46   39   41      am
    47   42   43      ar
    48   43   44      ar
    49   44   70       1
    50    5   45       1
    51    5   46       1
    52    6   47       1
    53    8   48       1
    54    9   49       1
    55   10   50       1
    56   11   51       1
    57   12   52       1
    58   14   53       1
    59   18   54       1
    60   18   55       1
    61   20   56       1
    62   43   69       1
    63   28   57       1
    64   28   58       1
    65   29   59       1
    66   31   60       1
    67   32   61       1
    68   33   62       1
    69   34   63       1
    70   35   64       1
    71   37   65       1
    72   41   66       1
    73   41   67       1
    74   42   68       1
@<TRIPOS>SUBSTRUCTURE
     1 NAD375      1 GROUP             4 B     NAD     0 **** NAD B 375
