@<TRIPOS>MOLECULE
3ghh_2NF_1_ligand
   69    73     1     0     0
SMALL
NO_CHARGES


@<TRIPOS>ATOM
     1 O7N         23.8750    -4.8780     1.0790 O.2          1 2NF301   0.0000
     2 C7N         23.3960    -3.5980     1.4440 C.2          1 2NF301   0.0000
     3 N7N         24.2620    -2.6000     1.6640 N.am         1 2NF301   0.0000
     4 C3N         21.9070    -3.4050     1.6400 C.ar         1 2NF301   0.0000
     5 C4N         21.1170    -4.5540     1.5440 C.ar         1 2NF301   0.0000
     6 C5N         19.7440    -4.4510     1.7360 C.ar         1 2NF301   0.0000
     7 C6N         19.1810    -3.1990     2.0260 C.ar         1 2NF301   0.0000
     8 C2N         21.3090    -2.1570     1.9340 C.ar         1 2NF301   0.0000
     9 N1N         19.9420    -2.0560     2.1270 N.ar         1 2NF301   1.0000
    10 C1D         19.2130    -0.7770     2.4510 C.3          1 2NF301   0.0000
    11 C2D         19.8200     0.5680     2.0040 C.3          1 2NF301   0.0000
    12 F2D         19.4720     1.5560     2.9600 F            1 2NF301   0.0000
    13 C3D         19.0550     0.9650     0.7590 C.3          1 2NF301   0.0000
    14 O3D         18.3710     2.1780     0.9360 O.3          1 2NF301   0.0000
    15 O4D         17.9280    -0.7720     1.8440 O.3          1 2NF301   0.0000
    16 C4D         17.9960    -0.1260     0.5760 C.3          1 2NF301   0.0000
    17 C5D         18.3820    -1.0410    -0.6060 C.3          1 2NF301   0.0000
    18 O5D         17.6990    -2.2900    -0.5680 O.3          1 2NF301   0.0000
    19 PN          16.6160    -2.6590    -1.7240 P.3          1 2NF301   0.0000
    20 O1N         15.7060    -1.4900    -1.8220 O.co2        1 2NF301   0.0000
    21 O2N         16.1220    -4.0550    -1.5010 O.co2        1 2NF301  -1.0000
    22 O3          17.5060    -2.5180    -3.0210 O.3          1 2NF301   0.0000
    23 PA          17.9630    -3.6830    -4.0390 P.3          1 2NF301   0.0000
    24 O1A         19.0140    -2.9750    -4.8270 O.co2        1 2NF301   0.0000
    25 O2A         16.6960    -4.2610    -4.5100 O.co2        1 2NF301  -1.0000
    26 O5B         18.7410    -4.7650    -3.1720 O.3          1 2NF301   0.0000
    27 C5B         20.0150    -4.4570    -2.6170 C.3          1 2NF301   0.0000
    28 C4B         20.5210    -5.7990    -2.1390 C.3          1 2NF301   0.0000
    29 O4B         19.6460    -6.3100    -1.1330 O.3          1 2NF301   0.0000
    30 C1B         19.1500    -7.5710    -1.5500 C.3          1 2NF301   0.0000
    31 C2B         19.2010    -7.6070    -3.0760 C.3          1 2NF301   0.0000
    32 O2B         19.2100    -8.9170    -3.6020 O.3          1 2NF301   0.0000
    33 C3B         20.4380    -6.7380    -3.3410 C.3          1 2NF301   0.0000
    34 O3B         21.6660    -7.4070    -3.4510 O.3          1 2NF301   0.0000
    35 N9A         17.8050    -7.8590    -1.0360 N.pl3        1 2NF301   0.0000
    36 C8A         16.5860    -7.3500    -1.3900 C.2          1 2NF301   0.0000
    37 N7A         15.6700    -7.9560    -0.6070 N.2          1 2NF301   0.0000
    38 C5A         16.3080    -8.8300     0.2290 C.ar         1 2NF301   0.0000
    39 C6A         15.8910    -9.6970     1.2200 C.ar         1 2NF301   0.0000
    40 N6A         14.5980    -9.7550     1.5260 N.pl3        1 2NF301   0.0000
    41 C4A         17.6500    -8.7790    -0.0320 C.ar         1 2NF301   0.0000
    42 N3A         18.5700    -9.5450     0.6460 N.ar         1 2NF301   0.0000
    43 C2A         18.1770   -10.4070     1.6260 C.ar         1 2NF301   0.0000
    44 N1A         16.8070   -10.4720     1.9050 N.ar         1 2NF301   0.0000
    45 H7N1        23.9260    -1.6942     1.9221 H            1 2NF301   0.0000
    46 H7N2        25.2445    -2.7608     1.5701 H            1 2NF301   0.0000
    47 H4N         21.5344    -5.4395     1.3397 H            1 2NF301   0.0000
    48 H5N         19.1629    -5.2620     1.6680 H            1 2NF301   0.0000
    49 H6N         18.1927    -3.1346     2.1641 H            1 2NF301   0.0000
    50 H2N         21.8800    -1.3390     2.0031 H            1 2NF301   0.0000
    51 H1D         19.0839    -0.7406     3.4420 H            1 2NF301   0.0000
    52 H2D         20.8063     0.5128     1.8488 H            1 2NF301   0.0000
    53 H3D         19.6623     1.0099    -0.0342 H            1 2NF301   0.0000
    54 H10         17.4543     1.9950     1.2913 H            1 2NF301   0.0000
    55 H4D         17.1145     0.3042     0.3813 H            1 2NF301   0.0000
    56 H5D1        19.3667    -1.2118    -0.5722 H            1 2NF301   0.0000
    57 H5D2        18.1536    -0.5754    -1.4610 H            1 2NF301   0.0000
    58 H5B1        19.9280    -3.8151    -1.8552 H            1 2NF301   0.0000
    59 H5B2        20.6237    -4.0710    -3.3102 H            1 2NF301   0.0000
    60 H4B         21.4591    -5.7303    -1.7996 H            1 2NF301   0.0000
    61 H1B         19.7696    -8.2756    -1.2042 H            1 2NF301   0.0000
    62 H2B         18.3972    -7.1294    -3.4306 H            1 2NF301   0.0000
    63 H19         19.2438    -8.8750    -4.6005 H            1 2NF301   0.0000
    64 H3B         20.2858    -6.1969    -4.1681 H            1 2NF301   0.0000
    65 H21         21.6374    -8.0298    -4.2329 H            1 2NF301   0.0000
    66 H8A         16.4082    -6.6617    -2.0933 H            1 2NF301   0.0000
    67 H6A1        14.2809   -10.3778     2.2412 H            1 2NF301   0.0000
    68 H6A2        13.9429    -9.1758     1.0409 H            1 2NF301   0.0000
    69 H2A         18.8383   -10.9682     2.1237 H            1 2NF301   0.0000
@<TRIPOS>BOND
     1    1    2       2
     2    2    3      am
     3    2    4       1
     4    4    5      ar
     5    4    8      ar
     6    5    6      ar
     7    6    7      ar
     8    7    9      ar
     9    8    9      ar
    10    9   10       1
    11   10   11       1
    12   10   15       1
    13   11   12       1
    14   11   13       1
    15   13   14       1
    16   13   16       1
    17   15   16       1
    18   16   17       1
    19   17   18       1
    20   18   19       1
    21   19   20      ar
    22   19   21      ar
    23   19   22       1
    24   22   23       1
    25   23   24      ar
    26   23   25      ar
    27   23   26       1
    28   26   27       1
    29   27   28       1
    30   28   29       1
    31   28   33       1
    32   29   30       1
    33   30   31       1
    34   30   35       1
    35   31   32       1
    36   31   33       1
    37   33   34       1
    38   35   36       1
    39   35   41       1
    40   36   37       2
    41   37   38       1
    42   38   39      ar
    43   38   41      ar
    44   39   40       1
    45   39   44      ar
    46   41   42      ar
    47   42   43      ar
    48   43   44      ar
    49    3   45       1
    50    3   46       1
    51    5   47       1
    52    6   48       1
    53    7   49       1
    54    8   50       1
    55   10   51       1
    56   11   52       1
    57   13   53       1
    58   14   54       1
    59   16   55       1
    60   17   56       1
    61   17   57       1
    62   43   69       1
    63   40   68       1
    64   27   58       1
    65   27   59       1
    66   28   60       1
    67   30   61       1
    68   31   62       1
    69   32   63       1
    70   33   64       1
    71   34   65       1
    72   36   66       1
    73   40   67       1
@<TRIPOS>SUBSTRUCTURE
     1 2NF301      1 GROUP             4 B     2NF     0 **** 2NF B 301
