@<TRIPOS>MOLECULE
1buc_CAA_3_ligand
   90    92     1     0     0
SMALL
NO_CHARGES


@<TRIPOS>ATOM
     1 N1A         32.1190    23.5960   122.9950 N.ar         1 CAA384   0.0000
     2 C2A         30.8260    23.8830   122.9570 C.ar         1 CAA384   0.0000
     3 N3A         29.8060    23.0810   122.6970 N.ar         1 CAA384   0.0000
     4 C4A         30.2470    21.8220   122.4530 C.ar         1 CAA384   0.0000
     5 C5A         31.5430    21.3880   122.4610 C.ar         1 CAA384   0.0000
     6 C6A         32.5290    22.3440   122.7520 C.ar         1 CAA384   0.0000
     7 N6A         33.8280    22.0560   122.7890 N.pl3        1 CAA384   0.0000
     8 N7A         31.6090    20.0280   122.1650 N.2          1 CAA384   0.0000
     9 C8A         30.3630    19.6850   121.9870 C.2          1 CAA384   0.0000
    10 N9A         29.4770    20.7230   122.1430 N.pl3        1 CAA384   0.0000
    11 C1B         28.0080    20.7310   121.9850 C.3          1 CAA384   0.0000
    12 C2B         27.6680    20.2900   120.5550 C.3          1 CAA384   0.0000
    13 O2B         27.7910    21.3950   119.6470 O.3          1 CAA384   0.0000
    14 C3B         26.2020    19.8890   120.7260 C.3          1 CAA384   0.0000
    15 O3B         25.3860    21.0570   120.9120 O.3          1 CAA384   0.0000
    16 P3B         23.8670    21.1380   120.3640 P.3          1 CAA384   0.0000
    17 O7A         23.3080    19.7860   120.6210 O.co2        1 CAA384   0.0000
    18 O8A         23.2780    22.2090   121.2040 O.co2        1 CAA384  -1.0000
    19 O9A         24.0230    21.4850   118.9300 O.co2        1 CAA384  -1.0000
    20 C4B         26.3220    19.1320   122.0680 C.3          1 CAA384   0.0000
    21 O4B         27.3610    19.7740   122.8410 O.3          1 CAA384   0.0000
    22 C5B         26.7080    17.6760   121.8280 C.3          1 CAA384   0.0000
    23 O5B         28.0070    17.5240   121.2710 O.3          1 CAA384   0.0000
    24 P1A         28.5380    16.0420   120.9800 P.3          1 CAA384   0.0000
    25 O1A         27.8150    15.5530   119.7800 O.co2        1 CAA384   0.0000
    26 O2A         30.0190    16.1130   120.9770 O.co2        1 CAA384  -1.0000
    27 O3A         28.0220    15.2670   122.3300 O.3          1 CAA384   0.0000
    28 P2A         28.1050    13.6950   122.7720 P.3          1 CAA384   0.0000
    29 O4A         27.0550    13.4950   123.7980 O.co2        1 CAA384   0.0000
    30 O5A         28.0930    12.8330   121.5670 O.co2        1 CAA384  -1.0000
    31 O6A         29.5250    13.4790   123.5220 O.3          1 CAA384   0.0000
    32 CBP         31.9980    13.4490   123.7620 C.3          1 CAA384   0.0000
    33 CCP         30.7730    13.8690   122.9420 C.3          1 CAA384   0.0000
    34 CDP         33.2480    13.9430   123.0260 C.3          1 CAA384   0.0000
    35 CEP         32.0500    11.9160   123.8170 C.3          1 CAA384   0.0000
    36 CAP         31.9170    14.0740   125.1880 C.3          1 CAA384   0.0000
    37 OAP         30.9020    13.4390   125.9970 O.3          1 CAA384   0.0000
    38 C9P         33.2640    13.9640   125.9110 C.2          1 CAA384   0.0000
    39 O9P         34.0600    14.9050   125.9150 O.2          1 CAA384   0.0000
    40 N8P         33.5640    12.7780   126.5530 N.am         1 CAA384   0.0000
    41 C7P         34.8130    12.6040   127.2600 C.3          1 CAA384   0.0000
    42 C6P         34.6170    12.8410   128.7460 C.3          1 CAA384   0.0000
    43 C5P         35.8880    13.2970   129.4250 C.2          1 CAA384   0.0000
    44 O5P         36.7790    13.8380   128.7660 O.2          1 CAA384   0.0000
    45 N4P         36.0580    13.1090   130.7960 N.am         1 CAA384   0.0000
    46 C3P         37.2890    13.5710   131.4150 C.3          1 CAA384   0.0000
    47 C2P         37.1010    13.9980   132.8570 C.3          1 CAA384   0.0000
    48 S1P         38.1620    15.4170   133.2800 S.3          1 CAA384   0.0000
    49 C1          39.6860    14.7810   133.9190 C.2          1 CAA384   0.0000
    50 O1          40.1460    13.8550   133.2560 O.2          1 CAA384   0.0000
    51 C2          40.5350    15.9830   134.2880 C.3          1 CAA384   0.0000
    52 C3          41.8560    15.6920   134.9860 C.2          1 CAA384   0.0000
    53 O3          42.3400    14.5640   134.9350 O.2          1 CAA384   0.0000
    54 C4          42.5660    16.7950   135.7460 C.3          1 CAA384   0.0000
    55 H2A         30.5887    24.8348   123.1511 H            1 CAA384   0.0000
    56 H6A1        34.1386    21.1228   122.6083 H            1 CAA384   0.0000
    57 H6A2        34.4933    22.7728   122.9975 H            1 CAA384   0.0000
    58 H8A         30.0795    18.7537   121.7584 H            1 CAA384   0.0000
    59 H1B         27.6475    21.6476   122.1581 H            1 CAA384   0.0000
    60 H2B         28.2294    19.5142   120.2670 H            1 CAA384   0.0000
    61 H7          27.5665    21.0920   118.7208 H            1 CAA384   0.0000
    62 H3B         25.8740    19.3052   119.9833 H            1 CAA384   0.0000
    63 H4B         25.4538    19.1765   122.5623 H            1 CAA384   0.0000
    64 H5B1        26.0437    17.2708   121.1999 H            1 CAA384   0.0000
    65 H5B2        26.6787    17.1915   122.7023 H            1 CAA384   0.0000
    66 HCP1        30.7808    14.8649   122.8522 H            1 CAA384   0.0000
    67 HCP2        30.8429    13.4520   122.0358 H            1 CAA384   0.0000
    68 HDP1        34.0638    13.6811   123.5417 H            1 CAA384   0.0000
    69 HDP2        33.2830    13.5315   122.1153 H            1 CAA384   0.0000
    70 HDP3        33.2129    14.9387   122.9408 H            1 CAA384   0.0000
    71 HEP1        32.8458    11.6284   124.3499 H            1 CAA384   0.0000
    72 HEP2        31.2170    11.5695   124.2484 H            1 CAA384   0.0000
    73 HEP3        32.1211    11.5514   122.8886 H            1 CAA384   0.0000
    74 HAP         31.6866    15.0427   125.0955 H            1 CAA384   0.0000
    75 H21         31.1125    12.4661   126.0928 H            1 CAA384   0.0000
    76 H8P         32.9051    12.0261   126.5282 H            1 CAA384   0.0000
    77 H7P1        35.4845    13.2561   126.9081 H            1 CAA384   0.0000
    78 H7P2        35.1461    11.6722   127.1160 H            1 CAA384   0.0000
    79 H6P1        34.3134    11.9881   129.1707 H            1 CAA384   0.0000
    80 H6P2        33.9160    13.5432   128.8702 H            1 CAA384   0.0000
    81 H4P         35.3475    12.6654   131.3422 H            1 CAA384   0.0000
    82 H3P1        37.6347    14.3513   130.8938 H            1 CAA384   0.0000
    83 H3P2        37.9583    12.8285   131.3869 H            1 CAA384   0.0000
    84 H2P1        37.3316    13.2307   133.4554 H            1 CAA384   0.0000
    85 H2P2        36.1447    14.2546   132.9974 H            1 CAA384   0.0000
    86 H32         39.9922    16.5638   134.8946 H            1 CAA384   0.0000
    87 H33         40.7398    16.4807   133.4452 H            1 CAA384   0.0000
    88 H34         43.4121    16.4367   136.1405 H            1 CAA384   0.0000
    89 H35         42.7813    17.5453   135.1209 H            1 CAA384   0.0000
    90 H36         41.9729    17.1306   136.4779 H            1 CAA384   0.0000
@<TRIPOS>BOND
     1    1    2      ar
     2    1    6      ar
     3    2    3      ar
     4    3    4      ar
     5    4    5      ar
     6    4   10       1
     7    5    6      ar
     8    5    8       1
     9    6    7       1
    10    8    9       2
    11    9   10       1
    12   10   11       1
    13   11   12       1
    14   11   21       1
    15   12   13       1
    16   12   14       1
    17   14   15       1
    18   14   20       1
    19   15   16       1
    20   16   17      ar
    21   16   18      ar
    22   16   19      ar
    23   20   21       1
    24   20   22       1
    25   22   23       1
    26   23   24       1
    27   24   25      ar
    28   24   26      ar
    29   24   27       1
    30   27   28       1
    31   28   29      ar
    32   28   30      ar
    33   28   31       1
    34   31   33       1
    35   32   33       1
    36   32   34       1
    37   32   35       1
    38   32   36       1
    39   36   37       1
    40   36   38       1
    41   38   39       2
    42   38   40      am
    43   40   41       1
    44   41   42       1
    45   42   43       1
    46   43   44       2
    47   43   45      am
    48   45   46       1
    49   46   47       1
    50   47   48       1
    51   48   49       1
    52   49   50       2
    53   49   51       1
    54   51   52       1
    55   52   53       2
    56   52   54       1
    57    2   55       1
    58    7   56       1
    59    7   57       1
    60    9   58       1
    61   11   59       1
    62   12   60       1
    63   13   61       1
    64   14   62       1
    65   54   90       1
    66   54   89       1
    67   20   63       1
    68   22   64       1
    69   22   65       1
    70   54   88       1
    71   51   87       1
    72   33   66       1
    73   33   67       1
    74   34   68       1
    75   34   69       1
    76   34   70       1
    77   35   71       1
    78   35   72       1
    79   35   73       1
    80   36   74       1
    81   37   75       1
    82   40   76       1
    83   41   77       1
    84   41   78       1
    85   42   79       1
    86   42   80       1
    87   45   81       1
    88   46   82       1
    89   46   83       1
    90   47   84       1
    91   47   85       1
    92   51   86       1
@<TRIPOS>SUBSTRUCTURE
     1 CAA384      1 GROUP             4 B     CAA     0 **** CAA B 384
