@<TRIPOS>MOLECULE
2vq5_LDP_2_ligand
   23    23     1     0     0
SMALL
NO_CHARGES


@<TRIPOS>ATOM
     1 C7          26.7440     3.1660     2.5880 C.3          1 LDP1197   0.0000
     2 C1          25.9290     4.2820     1.9700 C.ar         1 LDP1197   0.0000
     3 C4          24.3470     6.3050     0.8780 C.ar         1 LDP1197   0.0000
     4 C2          24.5750     4.3560     2.2880 C.ar         1 LDP1197   0.0000
     5 C6          26.4920     5.2270     1.1080 C.ar         1 LDP1197   0.0000
     6 C5          25.7060     6.2420     0.5600 C.ar         1 LDP1197   0.0000
     7 C3          23.7950     5.3680     1.7380 C.ar         1 LDP1197   0.0000
     8 O1          22.4740     5.4380     2.0450 O.3          1 LDP1197   0.0000
     9 O2          23.5520     7.2810     0.3550 O.3          1 LDP1197   0.0000
    10 C8          28.0620     2.9140     1.8690 C.3          1 LDP1197   0.0000
    11 N1          28.7780     1.9010     2.6200 N.4          1 LDP1197   1.0000
    12 H1          26.2026     2.3257     2.5622 H            1 LDP1197   0.0000
    13 H2          26.9417     3.4061     3.5384 H            1 LDP1197   0.0000
    14 H3          24.1662     3.6860     2.9077 H            1 LDP1197   0.0000
    15 H4          27.4648     5.1757     0.8822 H            1 LDP1197   0.0000
    16 H5          26.1120     6.9181    -0.0548 H            1 LDP1197   0.0000
    17 H6          21.9069     6.1616     1.6516 H            1 LDP1197   0.0000
    18 H7          23.9400     7.9634    -0.2645 H            1 LDP1197   0.0000
    19 H8          28.5989     3.7569     1.8338 H            1 LDP1197   0.0000
    20 H9          27.8877     2.5907     0.9389 H            1 LDP1197   0.0000
    21 H10         29.6522     1.7106     2.1734 H            1 LDP1197   0.0000
    22 H11         28.9434     2.2300     3.5497 H            1 LDP1197   0.0000
    23 H12         28.2322     1.0638     2.6548 H            1 LDP1197   0.0000
@<TRIPOS>BOND
     1    1    2       1
     2    1   10       1
     3    2    4      ar
     4    2    5      ar
     5    3    6      ar
     6    3    7      ar
     7    3    9       1
     8    4    7      ar
     9    5    6      ar
    10    7    8       1
    11   10   11       1
    12    1   12       1
    13    1   13       1
    14    4   14       1
    15    5   15       1
    16    6   16       1
    17    8   17       1
    18    9   18       1
    19   10   19       1
    20   10   20       1
    21   11   21       1
    22   11   22       1
    23   11   23       1
@<TRIPOS>SUBSTRUCTURE
     1 LDP1197     1 GROUP             4 B     LDP     0 **** LDP B1197
