@<TRIPOS>MOLECULE
3tdw_GDP_1_ligand
   40    42     1     0     0
SMALL
NO_CHARGES


@<TRIPOS>ATOM
     1 PB         -16.6370     2.1030    12.1960 P.3          1 GDP500   0.0000
     2 O1B        -15.6180     1.2290    11.5150 O.co2        1 GDP500   0.0000
     3 O2B        -16.5410     1.8510    13.6720 O.co2        1 GDP500  -1.0000
     4 O3B        -17.9980     1.8580    11.6620 O.co2        1 GDP500  -1.0000
     5 O3A        -16.2220     3.6380    11.8580 O.3          1 GDP500   0.0000
     6 PA         -16.7950     4.9890    12.5230 P.3          1 GDP500   0.0000
     7 O1A        -18.0120     5.5630    11.8600 O.co2        1 GDP500   0.0000
     8 O2A        -16.9870     4.7980    14.0090 O.co2        1 GDP500  -1.0000
     9 O5'        -15.5590     5.9930    12.3000 O.3          1 GDP500   0.0000
    10 C5'        -14.2590     5.5530    12.6810 C.3          1 GDP500   0.0000
    11 C4'        -13.6210     6.5770    13.6100 C.3          1 GDP500   0.0000
    12 O4'        -13.3900     7.8040    12.9180 O.3          1 GDP500   0.0000
    13 C3'        -14.4980     6.9580    14.7910 C.3          1 GDP500   0.0000
    14 O3'        -14.3930     5.9850    15.8330 O.3          1 GDP500   0.0000
    15 C2'        -13.9050     8.2920    15.1830 C.3          1 GDP500   0.0000
    16 O2'        -12.7130     8.0270    15.9270 O.3          1 GDP500   0.0000
    17 C1'        -13.5180     8.8890    13.8350 C.3          1 GDP500   0.0000
    18 N9         -14.6120     9.7700    13.3750 N.pl3        1 GDP500   0.0000
    19 C8         -15.5720     9.4800    12.4730 C.2          1 GDP500   0.0000
    20 N7         -16.4120    10.5320    12.2970 N.2          1 GDP500   0.0000
    21 C5         -15.9830    11.5100    13.1260 C.2          1 GDP500   0.0000
    22 C6         -16.3850    12.8970    13.4210 C.2          1 GDP500   0.0000
    23 O6         -17.3800    13.4040    12.8690 O.2          1 GDP500   0.0000
    24 N1         -15.6720    13.5790    14.3330 N.pl3        1 GDP500   0.0000
    25 C2         -14.5890    13.0430    14.9310 C.2          1 GDP500   0.0000
    26 N2         -13.8990    13.7920    15.8270 N.pl3        1 GDP500   0.0000
    27 N3         -14.1460    11.7910    14.6900 N.2          1 GDP500   0.0000
    28 C4         -14.7970    10.9990    13.8130 C.2          1 GDP500   0.0000
    29 H5'1       -13.6918     5.4465    11.8644 H            1 GDP500   0.0000
    30 H5'2       -14.3308     4.6748    13.1539 H            1 GDP500   0.0000
    31 H4'        -12.7502     6.2193    13.9473 H            1 GDP500   0.0000
    32 H3'        -15.4497     7.0658    14.5035 H            1 GDP500   0.0000
    33 H5         -13.4834     5.5700    15.8112 H            1 GDP500   0.0000
    34 H2'        -14.5512     8.8663    15.6856 H            1 GDP500   0.0000
    35 H7         -12.0618     8.7735    15.7902 H            1 GDP500   0.0000
    36 H1'        -12.6595     9.3969    13.9054 H            1 GDP500   0.0000
    37 H9         -15.6543     8.6048    11.9963 H            1 GDP500   0.0000
    38 H10        -15.9518    14.5082    14.5745 H            1 GDP500   0.0000
    39 H11        -13.0931    13.4120    16.2809 H            1 GDP500   0.0000
    40 H12        -14.1963    14.7242    16.0336 H            1 GDP500   0.0000
@<TRIPOS>BOND
     1    1    2      ar
     2    1    3      ar
     3    1    4      ar
     4    1    5       1
     5    5    6       1
     6    6    7      ar
     7    6    8      ar
     8    6    9       1
     9    9   10       1
    10   10   11       1
    11   11   12       1
    12   11   13       1
    13   12   17       1
    14   13   14       1
    15   13   15       1
    16   15   16       1
    17   15   17       1
    18   17   18       1
    19   18   19       1
    20   18   28       1
    21   19   20       2
    22   20   21       1
    23   21   22       1
    24   21   28       2
    25   22   23       2
    26   22   24       1
    27   24   25       1
    28   25   26       1
    29   25   27       2
    30   27   28       1
    31   26   40       1
    32   26   39       1
    33   24   38       1
    34   10   29       1
    35   10   30       1
    36   11   31       1
    37   13   32       1
    38   14   33       1
    39   15   34       1
    40   16   35       1
    41   17   36       1
    42   19   37       1
@<TRIPOS>SUBSTRUCTURE
     1 GDP500      1 GROUP             4 A     GDP     0 **** GDP A 500
