@<TRIPOS>MOLECULE
1lmc_BUL_1_ligand
   63    64     1     0     0
SMALL
NO_CHARGES


@<TRIPOS>ATOM
     1 O1          43.5140    43.1680    28.3400 O.3          1 BUL130   0.0000
     2 C2          42.7800    42.8400    27.1580 C.3          1 BUL130   0.0000
     3 C3          41.3290    42.6180    27.5380 C.3          1 BUL130   0.0000
     4 C4          40.7330    43.9030    28.1040 C.3          1 BUL130   0.0000
     5 C5          41.6420    44.5190    29.2170 C.3          1 BUL130   0.0000
     6 C6          43.0640    44.2460    29.0640 C.3          1 BUL130   0.0000
     7 N7          45.7070    40.3020    24.4980 N.4          1 BUL130   1.0000
     8 C8          46.5280    41.3970    25.2150 C.3          1 BUL130   0.0000
     9 C9          45.8240    41.6470    26.5540 C.3          1 BUL130   0.0000
    10 C10         44.3680    41.5850    25.9790 C.3          1 BUL130   0.0000
    11 C11         44.2490    40.3400    25.0370 C.3          1 BUL130   0.0000
    12 C12         44.0770    44.9050    29.9480 C.3          1 BUL130   0.0000
    13 O13         45.2380    45.2810    29.1410 O.3          1 BUL130   0.0000
    14 O14         41.1690    45.8650    29.1040 O.3          1 BUL130   0.0000
    15 O15         39.7680    43.1670    28.8690 O.3          1 BUL130   0.0000
    16 N16         40.6120    42.0230    26.4320 N.am         1 BUL130   0.0000
    17 C17         40.1820    40.7490    26.3720 C.2          1 BUL130   0.0000
    18 O18         40.3740    39.9130    27.2410 O.2          1 BUL130   0.0000
    19 C19         39.6650    40.3500    25.0130 C.3          1 BUL130   0.0000
    20 O20         43.2780    41.5470    26.8420 O.3          1 BUL130   0.0000
    21 C21         43.3250    40.5150    23.8080 C.3          1 BUL130   0.0000
    22 O22         43.6900    41.6080    22.9880 O.3          1 BUL130   0.0000
    23 C23         47.9300    40.8510    25.5400 C.2          1 BUL130   0.0000
    24 O24         48.3280    40.3050    24.5050 O.2          1 BUL130   0.0000
    25 N25         48.5910    41.7540    26.3230 N.am         1 BUL130   0.0000
    26 C26         50.0670    42.0030    26.1340 C.3          1 BUL130   0.0000
    27 C27         50.6840    42.3710    27.4660 C.3          1 BUL130   0.0000
    28 S28         52.3300    41.6100    27.7560 S.o2         1 BUL130   0.0000
    29 O29         53.1670    42.5470    27.0330 O.co2        1 BUL130   0.0000
    30 O30         52.2730    41.2500    29.1490 O.co2        1 BUL130   0.0000
    31 O31         52.2300    40.3600    27.0730 O.co2        1 BUL130  -1.0000
    32 S32         40.4840    46.4590    30.3150 S.o2         1 BUL130   0.0000
    33 O33         41.0510    47.7580    30.5430 O.co2        1 BUL130   0.0000
    34 O34         39.1270    45.9690    30.3390 O.co2        1 BUL130   0.0000
    35 O35         40.7300    45.5950    31.4270 O.co2        1 BUL130  -1.0000
    36 H1          42.9000    43.5032    26.4192 H            1 BUL130   0.0000
    37 H2          41.3243    41.9469    28.2793 H            1 BUL130   0.0000
    38 H3          40.3628    44.5467    27.4342 H            1 BUL130   0.0000
    39 H4          41.3461    44.1557    30.1004 H            1 BUL130   0.0000
    40 H5          43.1849    44.8960    28.3138 H            1 BUL130   0.0000
    41 H6          46.1101    39.4052    24.6805 H            1 BUL130   0.0000
    42 H7          46.5792    42.2324    24.6677 H            1 BUL130   0.0000
    43 H8          46.0471    42.5384    26.9484 H            1 BUL130   0.0000
    44 H9          46.0056    40.9299    27.2269 H            1 BUL130   0.0000
    45 H10         44.2512    42.3941    25.4030 H            1 BUL130   0.0000
    46 H11         44.0252    39.5112    25.5499 H            1 BUL130   0.0000
    47 H12         44.3594    44.2695    30.6666 H            1 BUL130   0.0000
    48 H13         43.6784    45.7225    30.3638 H            1 BUL130   0.0000
    49 H14         45.9203    45.7223    29.7239 H            1 BUL130   0.0000
    50 H15         39.1933    43.8043    29.3824 H            1 BUL130   0.0000
    51 H16         40.4192    42.6082    25.6444 H            1 BUL130   0.0000
    52 H17         39.3632    39.3969    25.0378 H            1 BUL130   0.0000
    53 H18         38.8948    40.9371    24.7638 H            1 BUL130   0.0000
    54 H19         40.3941    40.4513    24.3361 H            1 BUL130   0.0000
    55 H20         42.3897    40.6586    24.1314 H            1 BUL130   0.0000
    56 H21         43.3635    39.6795    23.2598 H            1 BUL130   0.0000
    57 H22         43.4365    41.4131    22.0405 H            1 BUL130   0.0000
    58 H23         48.0913    42.2555    27.0292 H            1 BUL130   0.0000
    59 H24         50.1994    42.7526    25.4855 H            1 BUL130   0.0000
    60 H25         50.5032    41.1755    25.7805 H            1 BUL130   0.0000
    61 H26         50.0659    42.0721    28.1931 H            1 BUL130   0.0000
    62 H27         50.7855    43.3652    27.5025 H            1 BUL130   0.0000
    63 H28         45.7062    40.4728    23.5127 H            1 BUL130   0.0000
@<TRIPOS>BOND
     1    1    2       1
     2    1    6       1
     3    2    3       1
     4    2   20       1
     5    3    4       1
     6    3   16       1
     7    4    5       1
     8    4   15       1
     9    5    6       1
    10    5   14       1
    11    6   12       1
    12    7    8       1
    13    7   11       1
    14    8    9       1
    15    8   23       1
    16    9   10       1
    17   10   11       1
    18   10   20       1
    19   11   21       1
    20   12   13       1
    21   14   32       1
    22   16   17      am
    23   17   18       2
    24   17   19       1
    25   21   22       1
    26   23   24       2
    27   23   25      am
    28   25   26       1
    29   26   27       1
    30   27   28       1
    31   28   29      ar
    32   28   30      ar
    33   28   31      ar
    34   32   33      ar
    35   32   34      ar
    36   32   35      ar
    37    2   36       1
    38    3   37       1
    39    4   38       1
    40    5   39       1
    41    6   40       1
    42    7   41       1
    43    8   42       1
    44    9   43       1
    45    9   44       1
    46   10   45       1
    47   11   46       1
    48   12   47       1
    49   12   48       1
    50   13   49       1
    51   15   50       1
    52   16   51       1
    53   19   52       1
    54   19   53       1
    55   19   54       1
    56   21   55       1
    57   21   56       1
    58   22   57       1
    59   25   58       1
    60   26   59       1
    61   26   60       1
    62   27   61       1
    63   27   62       1
    64    7   63       1
@<TRIPOS>SUBSTRUCTURE
     1 BUL130      1 GROUP             4 A     BUL     0 **** BUL A 130
