@<TRIPOS>MOLECULE
3fwy_ADP_1_ligand
   39    41     1     0     0
SMALL
NO_CHARGES


@<TRIPOS>ATOM
     1 PB           0.5080    49.0240    70.6760 P.3          1 ADP501   0.0000
     2 O1B         -0.2050    50.3510    70.4650 O.co2        1 ADP501   0.0000
     3 O2B          1.4860    49.0440    71.8060 O.co2        1 ADP501  -1.0000
     4 O3B          1.0220    48.4120    69.4150 O.co2        1 ADP501  -1.0000
     5 PA          -1.1550    46.5940    70.7020 P.3          1 ADP501   0.0000
     6 O1A         -0.0240    45.6060    70.8610 O.co2        1 ADP501   0.0000
     7 O2A         -1.7830    46.6210    69.3370 O.co2        1 ADP501  -1.0000
     8 O3A         -0.7000    48.0670    71.2140 O.3          1 ADP501   0.0000
     9 O5'         -2.3240    46.2440    71.7450 O.3          1 ADP501   0.0000
    10 C5'         -2.0530    46.1300    73.1420 C.3          1 ADP501   0.0000
    11 C4'         -2.8820    44.9850    73.7140 C.3          1 ADP501   0.0000
    12 O4'         -4.2790    45.2920    73.5740 O.3          1 ADP501   0.0000
    13 C3'         -2.6710    43.6590    73.0070 C.3          1 ADP501   0.0000
    14 O3'         -2.6840    42.6010    73.9960 O.3          1 ADP501   0.0000
    15 C2'         -3.8420    43.5550    72.0570 C.3          1 ADP501   0.0000
    16 O2'         -4.2360    42.2190    71.6950 O.3          1 ADP501   0.0000
    17 C1'         -4.9370    44.2730    72.8240 C.3          1 ADP501   0.0000
    18 N9          -5.9280    44.9640    71.9750 N.pl3        1 ADP501   0.0000
    19 C8          -5.6560    46.0030    71.1330 C.2          1 ADP501   0.0000
    20 N7          -6.7910    46.4310    70.5230 N.2          1 ADP501   0.0000
    21 C5          -7.8070    45.6780    71.0060 C.ar         1 ADP501   0.0000
    22 C6          -9.2500    45.6040    70.7720 C.ar         1 ADP501   0.0000
    23 N6          -9.8470    46.4380    69.9050 N.pl3        1 ADP501   0.0000
    24 N1          -9.9580    44.6720    71.4430 N.ar         1 ADP501   0.0000
    25 C2          -9.3660    43.8320    72.3090 C.ar         1 ADP501   0.0000
    26 N3          -8.0570    43.8270    72.5700 N.ar         1 ADP501   0.0000
    27 C4          -7.2370    44.7210    71.9490 C.ar         1 ADP501   0.0000
    28 H5'1        -2.2971    46.9837    73.6021 H            1 ADP501   0.0000
    29 H5'2        -1.0806    45.9426    73.2811 H            1 ADP501   0.0000
    30 H4'         -2.6659    44.8769    74.6844 H            1 ADP501   0.0000
    31 H3'         -1.8070    43.6610    72.5035 H            1 ADP501   0.0000
    32 H5          -3.2753    42.8644    74.7582 H            1 ADP501   0.0000
    33 H2'         -3.6343    44.0704    71.2256 H            1 ADP501   0.0000
    34 H7          -5.2180    42.2005    71.5069 H            1 ADP501   0.0000
    35 H1'         -5.3984    43.6358    73.4414 H            1 ADP501   0.0000
    36 H9          -4.7476    46.3944    70.9858 H            1 ADP501   0.0000
    37 H10        -10.8336    46.3787    69.7528 H            1 ADP501   0.0000
    38 H11         -9.3050    47.1183    69.4117 H            1 ADP501   0.0000
    39 H12         -9.9421    43.1694    72.7877 H            1 ADP501   0.0000
@<TRIPOS>BOND
     1    1    2      ar
     2    1    3      ar
     3    1    4      ar
     4    1    8       1
     5    5    6      ar
     6    5    7      ar
     7    5    8       1
     8    5    9       1
     9    9   10       1
    10   10   11       1
    11   11   12       1
    12   11   13       1
    13   12   17       1
    14   13   14       1
    15   13   15       1
    16   15   16       1
    17   15   17       1
    18   17   18       1
    19   18   19       1
    20   18   27       1
    21   19   20       2
    22   20   21       1
    23   21   22      ar
    24   21   27      ar
    25   22   23       1
    26   22   24      ar
    27   24   25      ar
    28   25   26      ar
    29   26   27      ar
    30   25   39       1
    31   23   38       1
    32   23   37       1
    33   10   28       1
    34   10   29       1
    35   11   30       1
    36   13   31       1
    37   14   32       1
    38   15   33       1
    39   16   34       1
    40   17   35       1
    41   19   36       1
@<TRIPOS>SUBSTRUCTURE
     1 ADP501      1 GROUP             4 A     ADP     0 **** ADP A 501
