@<TRIPOS>MOLECULE
5js6_NAD_1_ligand
   70    74     1     0     0
SMALL
NO_CHARGES


@<TRIPOS>ATOM
     1 PA          15.7820    12.5690    46.4100 P.3          1 NAD301   0.0000
     2 O1A         14.9820    13.1200    45.2970 O.co2        1 NAD301   0.0000
     3 O2A         16.6140    13.6060    47.1540 O.co2        1 NAD301  -1.0000
     4 O5B         16.7440    11.3820    45.8660 O.3          1 NAD301   0.0000
     5 C5B         16.1440    10.2650    45.1870 C.3          1 NAD301   0.0000
     6 C4B         17.1660     9.6630    44.2620 C.3          1 NAD301   0.0000
     7 O4B         16.5570     8.5710    43.5420 O.3          1 NAD301   0.0000
     8 C3B         17.7310    10.6280    43.2070 C.3          1 NAD301   0.0000
     9 O3B         19.1420    10.5130    43.0870 O.3          1 NAD301   0.0000
    10 C2B         17.0130    10.1990    41.9260 C.3          1 NAD301   0.0000
    11 O2B         17.7670    10.4670    40.7480 O.3          1 NAD301   0.0000
    12 C1B         16.8570     8.6990    42.1700 C.3          1 NAD301   0.0000
    13 N9A         15.7820     8.0950    41.3950 N.pl3        1 NAD301   0.0000
    14 C8A         14.5430     8.6300    41.1610 C.2          1 NAD301   0.0000
    15 N7A         13.8290     7.9580    40.2910 N.2          1 NAD301   0.0000
    16 C5A         14.6490     6.8940    39.9400 C.ar         1 NAD301   0.0000
    17 C6A         14.4740     5.8110    39.0620 C.ar         1 NAD301   0.0000
    18 N6A         13.4030     5.6500    38.2810 N.pl3        1 NAD301   0.0000
    19 N1A         15.4720     4.9030    38.9780 N.ar         1 NAD301   0.0000
    20 C2A         16.5740     5.0910    39.7110 C.ar         1 NAD301   0.0000
    21 N3A         16.8620     6.0830    40.5560 N.ar         1 NAD301   0.0000
    22 C4A         15.8520     6.9600    40.6290 C.ar         1 NAD301   0.0000
    23 O3          14.8150    11.9740    47.5340 O.3          1 NAD301   0.0000
    24 PN          14.9500    11.6750    49.0950 P.3          1 NAD301   0.0000
    25 O1N         14.3010    12.7210    49.9190 O.co2        1 NAD301   0.0000
    26 O2N         16.3370    11.2770    49.4160 O.co2        1 NAD301  -1.0000
    27 O5D         14.0340    10.3640    49.1980 O.3          1 NAD301   0.0000
    28 C5D         14.5690     9.0370    48.9940 C.3          1 NAD301   0.0000
    29 C4D         13.5280     8.0190    49.4030 C.3          1 NAD301   0.0000
    30 O4D         13.0900     8.2880    50.7570 O.3          1 NAD301   0.0000
    31 C3D         12.2610     8.0060    48.5440 C.3          1 NAD301   0.0000
    32 O3D         11.7800     6.6730    48.3780 O.3          1 NAD301   0.0000
    33 C2D         11.3060     8.8810    49.3620 C.3          1 NAD301   0.0000
    34 O2D          9.9410     8.6170    49.0690 O.3          1 NAD301   0.0000
    35 C1D         11.6930     8.4440    50.7670 C.3          1 NAD301   0.0000
    36 N1N         11.3110     9.4070    51.9080 N.ar         1 NAD301   1.0000
    37 C2N         11.8360    10.6480    51.9470 C.ar         1 NAD301   0.0000
    38 C3N         11.4440    11.5320    52.9340 C.ar         1 NAD301   0.0000
    39 C7N         12.0310    12.9070    53.0900 C.2          1 NAD301   0.0000
    40 O7N         11.6170    13.6380    54.0000 O.2          1 NAD301   0.0000
    41 N7N         12.9900    13.2840    52.2320 N.am         1 NAD301   0.0000
    42 C4N         10.4980    11.1170    53.8650 C.ar         1 NAD301   0.0000
    43 C5N          9.9940     9.8310    53.8120 C.ar         1 NAD301   0.0000
    44 C6N         10.4190     8.9830    52.8250 C.ar         1 NAD301   0.0000
    45 H5B1        15.3535    10.5761    44.6595 H            1 NAD301   0.0000
    46 H5B2        15.8506     9.5819    45.8558 H            1 NAD301   0.0000
    47 H4B         17.9231     9.3052    44.8086 H            1 NAD301   0.0000
    48 H3B         17.4837    11.5690    43.4380 H            1 NAD301   0.0000
    49 H5          19.3786     9.5797    42.8169 H            1 NAD301   0.0000
    50 H2B         16.1152    10.6358    41.8694 H            1 NAD301   0.0000
    51 H7          18.3426     9.6778    40.5339 H            1 NAD301   0.0000
    52 H1B         17.7191     8.2339    41.9692 H            1 NAD301   0.0000
    53 H8A         14.2129     9.4586    41.6131 H            1 NAD301   0.0000
    54 H6A1        13.3394     4.8554    37.6772 H            1 NAD301   0.0000
    55 H6A2        12.6645     6.3240    38.2999 H            1 NAD301   0.0000
    56 H2A         17.2811     4.3908    39.6124 H            1 NAD301   0.0000
    57 H5D1        15.3914     8.9178    49.5503 H            1 NAD301   0.0000
    58 H5D2        14.7986     8.9127    48.0287 H            1 NAD301   0.0000
    59 H4D         13.9423     7.1093    49.3757 H            1 NAD301   0.0000
    60 H3D         12.4400     8.4246    47.6537 H            1 NAD301   0.0000
    61 H17         12.5497     6.0351    48.4050 H            1 NAD301   0.0000
    62 H2D         11.5135     9.8497    49.2258 H            1 NAD301   0.0000
    63 H19          9.3852     8.7953    49.8810 H            1 NAD301   0.0000
    64 H1D         11.2752     7.5539    50.9492 H            1 NAD301   0.0000
    65 H2N         12.5086    10.9286    51.2622 H            1 NAD301   0.0000
    66 H7N1        13.4009    14.1924    52.3090 H            1 NAD301   0.0000
    67 H7N2        13.2943    12.6567    51.5151 H            1 NAD301   0.0000
    68 H4N         10.1824    11.7489    54.5728 H            1 NAD301   0.0000
    69 H5N          9.3250     9.5229    54.4885 H            1 NAD301   0.0000
    70 H6N         10.0672     8.0478    52.7843 H            1 NAD301   0.0000
@<TRIPOS>BOND
     1    1    2      ar
     2    1    3      ar
     3    1    4       1
     4    1   23       1
     5    4    5       1
     6    5    6       1
     7    6    7       1
     8    6    8       1
     9    7   12       1
    10    8    9       1
    11    8   10       1
    12   10   11       1
    13   10   12       1
    14   12   13       1
    15   13   14       1
    16   13   22       1
    17   14   15       2
    18   15   16       1
    19   16   17      ar
    20   16   22      ar
    21   17   18       1
    22   17   19      ar
    23   19   20      ar
    24   20   21      ar
    25   21   22      ar
    26   23   24       1
    27   24   25      ar
    28   24   26      ar
    29   24   27       1
    30   27   28       1
    31   28   29       1
    32   29   30       1
    33   29   31       1
    34   30   35       1
    35   31   32       1
    36   31   33       1
    37   33   34       1
    38   33   35       1
    39   35   36       1
    40   36   37      ar
    41   36   44      ar
    42   37   38      ar
    43   38   39       1
    44   38   42      ar
    45   39   40       2
    46   39   41      am
    47   42   43      ar
    48   43   44      ar
    49   44   70       1
    50    5   45       1
    51    5   46       1
    52    6   47       1
    53    8   48       1
    54    9   49       1
    55   10   50       1
    56   11   51       1
    57   12   52       1
    58   14   53       1
    59   18   54       1
    60   18   55       1
    61   20   56       1
    62   43   69       1
    63   28   57       1
    64   28   58       1
    65   29   59       1
    66   31   60       1
    67   32   61       1
    68   33   62       1
    69   34   63       1
    70   35   64       1
    71   37   65       1
    72   41   66       1
    73   41   67       1
    74   42   68       1
@<TRIPOS>SUBSTRUCTURE
     1 NAD301      1 GROUP             4 A     NAD     0 **** NAD A 301
