@<TRIPOS>MOLECULE
2qmm_SAM_1_ligand
   30    32     1     0     0
SMALL
NO_CHARGES


@<TRIPOS>ATOM
     1 SD          10.8740    34.3700   -19.1870 S.2          1 SAM301   0.0000
     2 C5'          9.5910    34.1300   -19.7910 C.2          1 SAM301   0.0000
     3 C4'          8.9340    35.4650   -20.1470 C.3          1 SAM301   0.0000
     4 O4'          8.5680    36.1420   -18.9390 O.3          1 SAM301   0.0000
     5 C3'          9.8340    36.4890   -20.8650 C.3          1 SAM301   0.0000
     6 O3'          9.9040    36.2680   -22.2730 O.3          1 SAM301   0.0000
     7 C2'          9.1770    37.8200   -20.5260 C.3          1 SAM301   0.0000
     8 O2'          8.1010    38.0730   -21.4740 O.3          1 SAM301   0.0000
     9 C1'          8.6820    37.5690   -19.0940 C.3          1 SAM301   0.0000
    10 N9           9.6120    38.0710   -18.0120 N.pl3        1 SAM301   0.0000
    11 C8          10.6640    37.4010   -17.4500 C.2          1 SAM301   0.0000
    12 N7          11.2840    38.1270   -16.4660 N.2          1 SAM301   0.0000
    13 C5          10.6510    39.3100   -16.3940 C.ar         1 SAM301   0.0000
    14 C6          10.7910    40.5740   -15.6070 C.ar         1 SAM301   0.0000
    15 N6          11.7610    40.7350   -14.6760 N.pl3        1 SAM301   0.0000
    16 N1           9.8920    41.5580   -15.8340 N.ar         1 SAM301   0.0000
    17 C2           8.9300    41.4330   -16.7630 C.ar         1 SAM301   0.0000
    18 N3           8.7330    40.3400   -17.5180 N.ar         1 SAM301   0.0000
    19 C4           9.5500    39.2680   -17.4090 C.ar         1 SAM301   0.0000
    20 H5'          9.1898    33.2285   -19.9534 H            1 SAM301   0.0000
    21 H4'          8.1154    35.2976   -20.6965 H            1 SAM301   0.0000
    22 H3'         10.7541    36.4595   -20.4743 H            1 SAM301   0.0000
    23 H4           9.5650    37.0762   -22.7545 H            1 SAM301   0.0000
    24 H2'          9.8477    38.5615   -20.5446 H            1 SAM301   0.0000
    25 H6           7.6644    38.9462   -21.2575 H            1 SAM301   0.0000
    26 H1'          7.7814    37.9877   -18.9769 H            1 SAM301   0.0000
    27 H8          10.9492    36.4832   -17.7263 H            1 SAM301   0.0000
    28 H9          11.8277    41.5929   -14.1666 H            1 SAM301   0.0000
    29 H10         12.4107    39.9960   -14.4979 H            1 SAM301   0.0000
    30 H11          8.3161    42.2100   -16.9025 H            1 SAM301   0.0000
@<TRIPOS>BOND
     1    1    2       2
     2    2    3       1
     3    3    4       1
     4    3    5       1
     5    4    9       1
     6    5    6       1
     7    5    7       1
     8    7    8       1
     9    7    9       1
    10    9   10       1
    11   10   11       1
    12   10   19       1
    13   11   12       2
    14   12   13       1
    15   13   14      ar
    16   13   19      ar
    17   14   15       1
    18   14   16      ar
    19   16   17      ar
    20   17   18      ar
    21   18   19      ar
    22    2   20       1
    23    3   21       1
    24    5   22       1
    25    6   23       1
    26    7   24       1
    27    8   25       1
    28    9   26       1
    29   11   27       1
    30   15   28       1
    31   15   29       1
    32   17   30       1
@<TRIPOS>SUBSTRUCTURE
     1 SAM301      1 GROUP             4 A     SAM     0 **** SAM A 301
