@<TRIPOS>MOLECULE
4xsr_UPG_2_ligand
   58    60     1     0     0
SMALL
NO_CHARGES


@<TRIPOS>ATOM
     1 N1          40.3440   -72.9490    19.6840 N.pl3        1 UPG403   0.0000
     2 C2          41.4050   -73.8330    19.8300 C.2          1 UPG403   0.0000
     3 N3          41.7970   -74.1920    21.0640 N.pl3        1 UPG403   0.0000
     4 C4          41.2310   -73.6960    22.1530 C.2          1 UPG403   0.0000
     5 C5          40.1980   -72.7820    22.0310 C.2          1 UPG403   0.0000
     6 C6          39.7620   -72.4190    20.7600 C.2          1 UPG403   0.0000
     7 O2          41.9530   -74.3040    18.8020 O.2          1 UPG403   0.0000
     8 O4          41.6450   -74.0660    23.2680 O.2          1 UPG403   0.0000
     9 C1C         39.9440   -72.5500    18.3540 C.3          1 UPG403   0.0000
    10 C2C         38.5130   -72.9040    17.9960 C.3          1 UPG403   0.0000
    11 O2C         38.4100   -74.2570    17.4880 O.3          1 UPG403   0.0000
    12 C3C         38.2340   -71.7980    16.9760 C.3          1 UPG403   0.0000
    13 C4C         39.0610   -70.6030    17.4350 C.3          1 UPG403   0.0000
    14 O4C         40.0360   -71.1180    18.3210 O.3          1 UPG403   0.0000
    15 O3C         38.7550   -72.2080    15.7140 O.3          1 UPG403   0.0000
    16 C5C         38.3010   -69.5160    18.1660 C.3          1 UPG403   0.0000
    17 O5C         37.6260   -68.8380    17.1180 O.3          1 UPG403   0.0000
    18 PA          36.7540   -67.5450    17.4070 P.3          1 UPG403   0.0000
    19 O1A         35.7570   -67.6090    16.2960 O.co2        1 UPG403   0.0000
    20 O2A         36.4190   -67.3130    18.8260 O.co2        1 UPG403  -1.0000
    21 O3A         37.8240   -66.4530    16.8940 O.3          1 UPG403   0.0000
    22 PB          38.3160   -65.0770    17.5330 P.3          1 UPG403   0.0000
    23 O1B         37.3630   -64.2950    18.3490 O.co2        1 UPG403   0.0000
    24 O2B         39.6230   -65.4470    18.2070 O.co2        1 UPG403  -1.0000
    25 O3B         38.6690   -64.3720    16.1150 O.3          1 UPG403   0.0000
    26 C1'         38.0430   -63.3870    15.2750 C.3          1 UPG403   0.0000
    27 C2'         36.5960   -63.0740    15.5560 C.3          1 UPG403   0.0000
    28 C3'         35.7280   -64.3190    15.4070 C.3          1 UPG403   0.0000
    29 C4'         35.9600   -64.9420    14.0510 C.3          1 UPG403   0.0000
    30 C5'         37.4550   -65.1340    13.7770 C.3          1 UPG403   0.0000
    31 C6'         37.6850   -65.6550    12.3870 C.3          1 UPG403   0.0000
    32 O2'         36.4520   -62.4160    16.8200 O.3          1 UPG403   0.0000
    33 O3'         34.3580   -63.9140    15.4470 O.3          1 UPG403   0.0000
    34 O4'         35.2860   -66.1890    13.9740 O.3          1 UPG403   0.0000
    35 O5'         38.1090   -63.8820    13.9270 O.3          1 UPG403   0.0000
    36 O6'         37.0760   -64.7850    11.4170 O.3          1 UPG403   0.0000
    37 H1          42.5395   -74.8545    21.1628 H            1 UPG403   0.0000
    38 H2          39.7710   -72.3881    22.8450 H            1 UPG403   0.0000
    39 H3          39.0148   -71.7629    20.6543 H            1 UPG403   0.0000
    40 H1C         40.5687   -72.9447    17.6802 H            1 UPG403   0.0000
    41 H2C         37.9217   -72.7914    18.7945 H            1 UPG403   0.0000
    42 H6          37.6512   -74.3125    16.8390 H            1 UPG403   0.0000
    43 H3C         37.2600   -71.5780    16.9227 H            1 UPG403   0.0000
    44 H4C         39.5208   -70.2020    16.6427 H            1 UPG403   0.0000
    45 H9          38.0506   -72.7063    15.2085 H            1 UPG403   0.0000
    46 H5C1        38.9264   -68.9017    18.6472 H            1 UPG403   0.0000
    47 H5C2        37.6514   -69.9077    18.8176 H            1 UPG403   0.0000
    48 H1'         38.5699   -62.5388    15.3300 H            1 UPG403   0.0000
    49 H2'         36.2974   -62.4260    14.8553 H            1 UPG403   0.0000
    50 H3'         35.9238   -64.9754    16.1355 H            1 UPG403   0.0000
    51 H4'         35.5840   -64.3332    13.3524 H            1 UPG403   0.0000
    52 H5'         37.8305   -65.7832    14.4385 H            1 UPG403   0.0000
    53 H6'1        37.2852   -66.5681    12.3073 H            1 UPG403   0.0000
    54 H6'2        38.6684   -65.7053    12.2127 H            1 UPG403   0.0000
    55 H19         36.7996   -63.0092    17.5461 H            1 UPG403   0.0000
    56 H20         33.9001   -64.3625    16.2146 H            1 UPG403   0.0000
    57 H21         35.6353   -66.8011    14.6835 H            1 UPG403   0.0000
    58 H6'         37.7335   -64.0852    11.1376 H            1 UPG403   0.0000
@<TRIPOS>BOND
     1    1    2       1
     2    1    6       1
     3    1    9       1
     4    2    3       1
     5    2    7       2
     6    3    4       1
     7    4    5       1
     8    4    8       2
     9    5    6       2
    10    9   10       1
    11    9   14       1
    12   10   11       1
    13   10   12       1
    14   12   13       1
    15   12   15       1
    16   13   14       1
    17   13   16       1
    18   16   17       1
    19   17   18       1
    20   18   19      ar
    21   18   20      ar
    22   18   21       1
    23   21   22       1
    24   22   23      ar
    25   22   24      ar
    26   22   25       1
    27   25   26       1
    28   26   27       1
    29   26   35       1
    30   27   28       1
    31   27   32       1
    32   28   29       1
    33   28   33       1
    34   29   30       1
    35   29   34       1
    36   30   31       1
    37   30   35       1
    38   31   36       1
    39    3   37       1
    40    5   38       1
    41    6   39       1
    42    9   40       1
    43   10   41       1
    44   11   42       1
    45   12   43       1
    46   13   44       1
    47   15   45       1
    48   16   46       1
    49   16   47       1
    50   36   58       1
    51   34   57       1
    52   26   48       1
    53   27   49       1
    54   28   50       1
    55   29   51       1
    56   30   52       1
    57   31   53       1
    58   31   54       1
    59   32   55       1
    60   33   56       1
@<TRIPOS>SUBSTRUCTURE
     1 UPG403      1 GROUP             4 B     UPG     0 **** UPG B 403
