@<TRIPOS>MOLECULE
4ysj_ADP_2_ligand
   39    41     1     0     0
SMALL
NO_CHARGES


@<TRIPOS>ATOM
     1 PB          32.6850   103.0960    81.5020 P.3          1 ADP506   0.0000
     2 O1B         32.5530   103.3410    80.0670 O.co2        1 ADP506   0.0000
     3 O2B         32.7200   104.2810    82.4390 O.co2        1 ADP506  -1.0000
     4 O3B         31.6690   102.0990    82.0510 O.co2        1 ADP506  -1.0000
     5 PA          35.0500   101.7690    80.5470 P.3          1 ADP506   0.0000
     6 O1A         34.4780   101.8880    79.1610 O.co2        1 ADP506   0.0000
     7 O2A         35.5730   100.5790    81.3120 O.co2        1 ADP506  -1.0000
     8 O3A         34.1340   102.3930    81.7170 O.3          1 ADP506   0.0000
     9 O5'         36.3480   102.6910    80.4410 O.3          1 ADP506   0.0000
    10 C5'         36.1830   104.0060    79.9300 C.3          1 ADP506   0.0000
    11 C4'         37.1160   104.2270    78.7690 C.3          1 ADP506   0.0000
    12 O4'         38.4130   104.2330    79.3370 O.3          1 ADP506   0.0000
    13 C3'         37.1450   103.1700    77.7370 C.3          1 ADP506   0.0000
    14 O3'         36.2150   103.3290    76.6720 O.3          1 ADP506   0.0000
    15 C2'         38.5460   103.3580    77.2430 C.3          1 ADP506   0.0000
    16 O2'         38.6480   104.5120    76.4420 O.3          1 ADP506   0.0000
    17 C1'         39.3350   103.6190    78.4660 C.3          1 ADP506   0.0000
    18 N9          39.8310   102.3560    79.0610 N.pl3        1 ADP506   0.0000
    19 C8          39.2260   101.5630    79.9620 C.2          1 ADP506   0.0000
    20 N7          40.0010   100.5130    80.3080 N.2          1 ADP506   0.0000
    21 C5          41.1240   100.6460    79.5840 C.ar         1 ADP506   0.0000
    22 C6          42.3590    99.8740    79.4180 C.ar         1 ADP506   0.0000
    23 N6          42.5160    98.7380    80.1280 N.pl3        1 ADP506   0.0000
    24 N1          43.2950   100.3480    78.5700 N.ar         1 ADP506   0.0000
    25 C2          43.1250   101.4830    77.8500 C.ar         1 ADP506   0.0000
    26 N3          42.0190   102.2320    77.9500 N.ar         1 ADP506   0.0000
    27 C4          41.0110   101.8650    78.7830 C.ar         1 ADP506   0.0000
    28 H5'1        36.3871   104.6693    80.6500 H            1 ADP506   0.0000
    29 H5'2        35.2387   104.1264    79.6238 H            1 ADP506   0.0000
    30 H4'         36.9266   105.1122    78.3441 H            1 ADP506   0.0000
    31 H3'         37.0419   102.2689    78.1581 H            1 ADP506   0.0000
    32 H5          36.3112   102.5690    76.0292 H            1 ADP506   0.0000
    33 H2'         38.8761   102.5468    76.7603 H            1 ADP506   0.0000
    34 H7          38.0389   104.4255    75.6537 H            1 ADP506   0.0000
    35 H1'         40.0961   104.2367    78.2679 H            1 ADP506   0.0000
    36 H9          38.3120   101.7305    80.3315 H            1 ADP506   0.0000
    37 H10         43.3515    98.1976    80.0285 H            1 ADP506   0.0000
    38 H11         41.7969    98.4362    80.7539 H            1 ADP506   0.0000
    39 H12         43.8490   101.7711    77.2233 H            1 ADP506   0.0000
@<TRIPOS>BOND
     1    1    2      ar
     2    1    3      ar
     3    1    4      ar
     4    1    8       1
     5    5    6      ar
     6    5    7      ar
     7    5    8       1
     8    5    9       1
     9    9   10       1
    10   10   11       1
    11   11   12       1
    12   11   13       1
    13   12   17       1
    14   13   14       1
    15   13   15       1
    16   15   16       1
    17   15   17       1
    18   17   18       1
    19   18   19       1
    20   18   27       1
    21   19   20       2
    22   20   21       1
    23   21   22      ar
    24   21   27      ar
    25   22   23       1
    26   22   24      ar
    27   24   25      ar
    28   25   26      ar
    29   26   27      ar
    30   25   39       1
    31   23   38       1
    32   23   37       1
    33   10   28       1
    34   10   29       1
    35   11   30       1
    36   13   31       1
    37   14   32       1
    38   15   33       1
    39   16   34       1
    40   17   35       1
    41   19   36       1
@<TRIPOS>SUBSTRUCTURE
     1 ADP506      1 GROUP             4 B     ADP     0 **** ADP B 506
