@<TRIPOS>MOLECULE
2glr_GTX_2_ligand
   54    53     1     0     0
SMALL
NO_CHARGES


@<TRIPOS>ATOM
     1 N1          59.6360    23.6260     6.4390 N.4          1 GTX210   1.0000
     2 CA1         59.8800    25.0320     6.5250 C.3          1 GTX210   0.0000
     3 C1          61.3970    25.0760     6.5210 C.2          1 GTX210   0.0000
     4 O11         62.0470    24.1280     6.9810 O.co2        1 GTX210   0.0000
     5 O12         61.9130    26.0090     5.9290 O.co2        1 GTX210  -1.0000
     6 CB1         59.3210    25.6180     7.8130 C.3          1 GTX210   0.0000
     7 CG1         59.4180    27.1510     7.7770 C.3          1 GTX210   0.0000
     8 CD1         58.5840    27.8490     8.8270 C.2          1 GTX210   0.0000
     9 OE1         57.9630    27.1990     9.6750 O.2          1 GTX210   0.0000
    10 N2          58.5330    29.1800     8.7180 N.am         1 GTX210   0.0000
    11 CA2         57.7780    30.0470     9.6140 C.3          1 GTX210   0.0000
    12 C2          57.1190    31.1100     8.7500 C.2          1 GTX210   0.0000
    13 O2          57.6640    31.4970     7.7090 O.2          1 GTX210   0.0000
    14 CB2         58.6350    30.8520    10.5650 C.3          1 GTX210   0.0000
    15 SG2         60.1890    30.1550    11.1550 S.3          1 GTX210   0.0000
    16 C1S         59.9150    30.4290    12.9170 C.3          1 GTX210   0.0000
    17 C2S         60.1590    31.8660    13.3890 C.3          1 GTX210   0.0000
    18 C3S         58.8310    32.5640    13.4900 C.3          1 GTX210   0.0000
    19 C4S         58.8160    33.7350    14.4370 C.3          1 GTX210   0.0000
    20 C5S         57.8280    34.7810    13.9440 C.3          1 GTX210   0.0000
    21 C6S         56.5230    34.2000    13.3580 C.3          1 GTX210   0.0000
    22 N3          56.0080    31.6330     9.2330 N.am         1 GTX210   0.0000
    23 CA3         55.3520    32.7340     8.5830 C.3          1 GTX210   0.0000
    24 C3          53.9770    32.2960     8.1550 C.2          1 GTX210   0.0000
    25 O31         53.1840    33.1590     7.8260 O.co2        1 GTX210   0.0000
    26 O32         53.6700    31.1030     8.1630 O.co2        1 GTX210  -1.0000
    27 H1          59.5833    23.2399     7.3599 H            1 GTX210   0.0000
    28 H2          58.7725    23.4662     5.9606 H            1 GTX210   0.0000
    29 HA1         59.5083    25.5070     5.7274 H            1 GTX210   0.0000
    30 HB11        59.8460    25.2709     8.5901 H            1 GTX210   0.0000
    31 HB12        58.3629    25.3488     7.9111 H            1 GTX210   0.0000
    32 HG11        59.1147    27.4635     6.8768 H            1 GTX210   0.0000
    33 HG12        60.3746    27.4081     7.9143 H            1 GTX210   0.0000
    34 H8          59.0457    29.6086     7.9740 H            1 GTX210   0.0000
    35 HA2         57.0898    29.5230    10.1159 H            1 GTX210   0.0000
    36 HB21        58.0757    31.0429    11.3717 H            1 GTX210   0.0000
    37 HB22        58.8570    31.7104    10.1026 H            1 GTX210   0.0000
    38 H1S1        60.5301    29.8260    13.4250 H            1 GTX210   0.0000
    39 H1S2        58.9666    30.1899    13.1253 H            1 GTX210   0.0000
    40 H2S1        60.7422    32.3431    12.7315 H            1 GTX210   0.0000
    41 H2S2        60.6045    31.8564    14.2842 H            1 GTX210   0.0000
    42 H3S1        58.1514    31.9002    13.8022 H            1 GTX210   0.0000
    43 H3S2        58.5809    32.8942    12.5798 H            1 GTX210   0.0000
    44 H4S1        59.7304    34.1371    14.4828 H            1 GTX210   0.0000
    45 H4S2        58.5431    33.4230    15.3470 H            1 GTX210   0.0000
    46 H5S1        58.2757    35.3235    13.2332 H            1 GTX210   0.0000
    47 H5S2        57.5889    35.3727    14.7139 H            1 GTX210   0.0000
    48 H6S1        55.9304    34.9476    13.0583 H            1 GTX210   0.0000
    49 H6S2        56.7401    33.6135    12.5777 H            1 GTX210   0.0000
    50 H6S3        56.0533    33.6626    14.0585 H            1 GTX210   0.0000
    51 H25         55.6136    31.2546    10.0704 H            1 GTX210   0.0000
    52 HA31        55.8802    33.0139     7.7813 H            1 GTX210   0.0000
    53 HA32        55.2772    33.5029     9.2180 H            1 GTX210   0.0000
    54 H28         60.3815    23.1884     5.9363 H            1 GTX210   0.0000
@<TRIPOS>BOND
     1    1    2       1
     2    2    3       1
     3    2    6       1
     4    3    4      ar
     5    3    5      ar
     6    6    7       1
     7    7    8       1
     8    8    9       2
     9    8   10      am
    10   10   11       1
    11   11   12       1
    12   11   14       1
    13   12   13       2
    14   12   22      am
    15   14   15       1
    16   15   16       1
    17   16   17       1
    18   17   18       1
    19   18   19       1
    20   19   20       1
    21   20   21       1
    22   22   23       1
    23   23   24       1
    24   24   25      ar
    25   24   26      ar
    26    1   27       1
    27    1   28       1
    28    2   29       1
    29    1   54       1
    30    6   30       1
    31    6   31       1
    32    7   32       1
    33    7   33       1
    34   10   34       1
    35   11   35       1
    36   14   36       1
    37   14   37       1
    38   16   38       1
    39   16   39       1
    40   17   40       1
    41   17   41       1
    42   18   42       1
    43   18   43       1
    44   19   44       1
    45   19   45       1
    46   20   46       1
    47   20   47       1
    48   21   48       1
    49   21   49       1
    50   21   50       1
    51   22   51       1
    52   23   52       1
    53   23   53       1
@<TRIPOS>SUBSTRUCTURE
     1 GTX210      1 GROUP             4 B     GTX     0 **** GTX B 210
