@<TRIPOS>MOLECULE
3m1f_ATP_1_ligand
   43    45     1     0     0
SMALL
NO_CHARGES


@<TRIPOS>ATOM
     1 PG          18.4320     4.3870    18.0310 P.3          1 ATP400   0.0000
     2 O1G         19.4320     5.2090    18.8050 O.co2        1 ATP400   0.0000
     3 O2G         18.8030     4.2220    16.5800 O.co2        1 ATP400  -1.0000
     4 O3G         17.9900     3.1330    18.7290 O.co2        1 ATP400  -1.0000
     5 PB          16.2160     5.6180    16.6980 P.3          1 ATP400   0.0000
     6 O1B         16.3670     4.5150    15.6830 O.co2        1 ATP400   0.0000
     7 O2B         14.8210     5.9340    17.1750 O.co2        1 ATP400  -1.0000
     8 O3B         17.0960     5.2900    18.0170 O.3          1 ATP400   0.0000
     9 PA          16.6470     7.7420    14.7860 P.3          1 ATP400   0.0000
    10 O1A         17.6880     7.3500    13.7550 O.co2        1 ATP400   0.0000
    11 O2A         15.1830     7.5900    14.4270 O.co2        1 ATP400  -1.0000
    12 O3A         16.9560     6.9690    16.1790 O.3          1 ATP400   0.0000
    13 O5'         16.9150     9.2790    15.1690 O.3          1 ATP400   0.0000
    14 C5'         16.1930     9.9180    16.2170 C.3          1 ATP400   0.0000
    15 C4'         17.0760    11.0260    16.7850 C.3          1 ATP400   0.0000
    16 O4'         17.6480    11.8160    15.7350 O.3          1 ATP400   0.0000
    17 C3'         16.3050    11.9660    17.7000 C.3          1 ATP400   0.0000
    18 O3'         16.9620    11.9780    18.9710 O.3          1 ATP400   0.0000
    19 C2'         16.4030    13.3300    17.0430 C.3          1 ATP400   0.0000
    20 O2'         16.6560    14.3680    17.9850 O.3          1 ATP400   0.0000
    21 C1'         17.5910    13.1970    16.1120 C.3          1 ATP400   0.0000
    22 N9          17.4180    14.0990    14.9500 N.pl3        1 ATP400   0.0000
    23 C8          16.4490    14.0170    14.0170 C.2          1 ATP400   0.0000
    24 N7          16.5830    15.0060    13.0940 N.2          1 ATP400   0.0000
    25 C5          17.6560    15.7400    13.4400 C.ar         1 ATP400   0.0000
    26 C6          18.3550    16.9240    12.9010 C.ar         1 ATP400   0.0000
    27 N6          17.9040    17.5280    11.7770 N.pl3        1 ATP400   0.0000
    28 N1          19.4430    17.3780    13.5680 N.ar         1 ATP400   0.0000
    29 C2          19.8890    16.7780    14.6860 C.ar         1 ATP400   0.0000
    30 N3          19.3040    15.6960    15.2290 N.ar         1 ATP400   0.0000
    31 C4          18.2020    15.1420    14.6670 C.ar         1 ATP400   0.0000
    32 H5'1        15.9759     9.2552    16.9336 H            1 ATP400   0.0000
    33 H5'2        15.3460    10.3091    15.8570 H            1 ATP400   0.0000
    34 H4'         17.8172    10.6066    17.3092 H            1 ATP400   0.0000
    35 H3'         15.3516    11.6781    17.7906 H            1 ATP400   0.0000
    36 H5          16.5765    11.2614    19.5523 H            1 ATP400   0.0000
    37 H2'         15.5722    13.5267    16.5222 H            1 ATP400   0.0000
    38 H7          16.2487    15.2210    17.6585 H            1 ATP400   0.0000
    39 H1'         18.4271    13.4428    16.6024 H            1 ATP400   0.0000
    40 H9          15.7292    13.3229    14.0053 H            1 ATP400   0.0000
    41 H10         18.3798    18.3295    11.4148 H            1 ATP400   0.0000
    42 H11         17.0950    17.1728    11.3087 H            1 ATP400   0.0000
    43 H12         20.6976    17.1562    15.1368 H            1 ATP400   0.0000
@<TRIPOS>BOND
     1    1    2      ar
     2    1    3      ar
     3    1    4      ar
     4    1    8       1
     5    5    6      ar
     6    5    7      ar
     7    5    8       1
     8    5   12       1
     9    9   10      ar
    10    9   11      ar
    11    9   12       1
    12    9   13       1
    13   13   14       1
    14   14   15       1
    15   15   16       1
    16   15   17       1
    17   16   21       1
    18   17   18       1
    19   17   19       1
    20   19   20       1
    21   19   21       1
    22   21   22       1
    23   22   23       1
    24   22   31       1
    25   23   24       2
    26   24   25       1
    27   25   26      ar
    28   25   31      ar
    29   26   27       1
    30   26   28      ar
    31   28   29      ar
    32   29   30      ar
    33   30   31      ar
    34   29   43       1
    35   27   42       1
    36   27   41       1
    37   23   40       1
    38   14   32       1
    39   14   33       1
    40   15   34       1
    41   17   35       1
    42   18   36       1
    43   19   37       1
    44   20   38       1
    45   21   39       1
@<TRIPOS>SUBSTRUCTURE
     1 ATP400      1 GROUP             4 A     ATP     0 **** ATP A 400
