@<TRIPOS>MOLECULE
3dtg_OBZ_1_ligand
   16    16     1     0     0
SMALL
NO_CHARGES


@<TRIPOS>ATOM
     1 O2           9.4350   -15.6060     8.8220 O.3          1 OBZ371   0.0000
     2 C3           8.7470   -16.0360    10.0340 C.3          1 OBZ371   0.0000
     3 C4           9.1660   -17.4000    10.3330 C.ar         1 OBZ371   0.0000
     4 C9           8.5180   -18.4880     9.6810 C.ar         1 OBZ371   0.0000
     5 C8           9.0000   -19.8010     9.8530 C.ar         1 OBZ371   0.0000
     6 C7          10.1330   -20.0060    10.6850 C.ar         1 OBZ371   0.0000
     7 C6          10.7740   -18.9240    11.3450 C.ar         1 OBZ371   0.0000
     8 C5          10.2870   -17.6190    11.1680 C.ar         1 OBZ371   0.0000
     9 H1           8.7611   -15.3774     8.1194 H            1 OBZ371   0.0000
    10 H2           7.7578   -16.0092     9.8899 H            1 OBZ371   0.0000
    11 H3           8.9896   -15.4327    10.7937 H            1 OBZ371   0.0000
    12 H4           7.7208   -18.3201     9.1011 H            1 OBZ371   0.0000
    13 H5           8.5538   -20.5722     9.3989 H            1 OBZ371   0.0000
    14 H6          10.4872   -20.9329    10.8088 H            1 OBZ371   0.0000
    15 H7          11.5666   -19.0904    11.9316 H            1 OBZ371   0.0000
    16 H8          10.7294   -16.8497    11.6289 H            1 OBZ371   0.0000
@<TRIPOS>BOND
     1    1    2       1
     2    2    3       1
     3    3    4      ar
     4    3    8      ar
     5    4    5      ar
     6    5    6      ar
     7    6    7      ar
     8    7    8      ar
     9    1    9       1
    10    2   10       1
    11    2   11       1
    12    4   12       1
    13    5   13       1
    14    6   14       1
    15    7   15       1
    16    8   16       1
@<TRIPOS>SUBSTRUCTURE
     1 OBZ371      1 GROUP             4 A     OBZ     0 **** OBZ A 371
