@<TRIPOS>MOLECULE
1t0i_FMN_2_ligand
   50    52     1     0     0
SMALL
NO_CHARGES


@<TRIPOS>ATOM
     1 N1          16.4150   100.8240    19.0140 N.2          1 FMN200   0.0000
     2 C2          16.8330   102.1380    19.0540 C.2          1 FMN200   0.0000
     3 O2          16.0240   103.0450    18.8680 O.2          1 FMN200   0.0000
     4 N3          18.1560   102.4430    19.2950 N.pl3        1 FMN200   0.0000
     5 C4          19.0720   101.4290    19.5020 C.2          1 FMN200   0.0000
     6 O4          20.2580   101.6690    19.2830 O.2          1 FMN200   0.0000
     7 C4A         18.6500   100.1030    19.4700 C.2          1 FMN200   0.0000
     8 N5          19.5500    99.0780    19.6770 N.2          1 FMN200   0.0000
     9 C5A         19.1350    97.7620    19.6340 C.ar         1 FMN200   0.0000
    10 C6          20.0520    96.7400    19.8620 C.ar         1 FMN200   0.0000
    11 C7          19.6500    95.4080    19.8000 C.ar         1 FMN200   0.0000
    12 C7M         20.7090    94.4230    19.3820 C.3          1 FMN200   0.0000
    13 C8          18.3070    95.1100    19.5620 C.ar         1 FMN200   0.0000
    14 C8M         17.8750    93.7130    19.2130 C.3          1 FMN200   0.0000
    15 C9          17.3950    96.1390    19.3560 C.ar         1 FMN200   0.0000
    16 C9A         17.8020    97.4680    19.3890 C.ar         1 FMN200   0.0000
    17 N10         16.8910    98.4920    19.1950 N.pl3        1 FMN200   0.0000
    18 C10         17.3200    99.8030    19.2200 C.2          1 FMN200   0.0000
    19 C1'         15.4620    98.2550    19.5800 C.3          1 FMN200   0.0000
    20 C2'         14.6930    98.0140    18.2910 C.3          1 FMN200   0.0000
    21 O2'         14.1770    99.2440    17.8310 O.3          1 FMN200   0.0000
    22 C3'         13.5510    97.0180    18.4550 C.3          1 FMN200   0.0000
    23 O3'         13.9520    95.9190    19.2420 O.3          1 FMN200   0.0000
    24 C4'         13.0970    96.5200    17.0880 C.3          1 FMN200   0.0000
    25 O4'         11.9230    95.7530    17.2290 O.3          1 FMN200   0.0000
    26 C5'         14.1780    95.6750    16.4220 C.3          1 FMN200   0.0000
    27 O5'         13.8350    95.4440    15.0780 O.3          1 FMN200   0.0000
    28 P           13.4450    93.9560    14.6190 P.3          1 FMN200   0.0000
    29 O1P         12.8860    94.0130    13.2520 O.co2        1 FMN200   0.0000
    30 O2P         14.7010    93.0670    14.6350 O.co2        1 FMN200  -1.0000
    31 O3P         12.3980    93.4010    15.5980 O.co2        1 FMN200  -1.0000
    32 H1          18.4526   103.3977    19.3200 H            1 FMN200   0.0000
    33 H2          21.0040    96.9632    20.0713 H            1 FMN200   0.0000
    34 H7M1        20.3208    93.5015    19.3693 H            1 FMN200   0.0000
    35 H7M2        21.0404    94.6577    18.4682 H            1 FMN200   0.0000
    36 H7M3        21.4692    94.4555    20.0308 H            1 FMN200   0.0000
    37 H8M1        16.8841    93.6941    19.0795 H            1 FMN200   0.0000
    38 H8M2        18.3304    93.4238    18.3710 H            1 FMN200   0.0000
    39 H8M3        18.1231    93.0919    19.9564 H            1 FMN200   0.0000
    40 H9          16.4348    95.9206    19.1820 H            1 FMN200   0.0000
    41 H1'1        15.0961    99.0557    20.0544 H            1 FMN200   0.0000
    42 H1'2        15.3943    97.4547    20.1758 H            1 FMN200   0.0000
    43 H2'         15.3275    97.6592    17.6044 H            1 FMN200   0.0000
    44 H13         14.7835    99.9868    18.1144 H            1 FMN200   0.0000
    45 H3'         12.7838    97.4757    18.9044 H            1 FMN200   0.0000
    46 H15         13.1618    95.5573    19.7367 H            1 FMN200   0.0000
    47 H4'         12.8995    97.3089    16.5061 H            1 FMN200   0.0000
    48 H17         12.0879    94.8261    16.8920 H            1 FMN200   0.0000
    49 H5'1        14.2583    94.8003    16.9000 H            1 FMN200   0.0000
    50 H5'2        15.0519    96.1593    16.4639 H            1 FMN200   0.0000
@<TRIPOS>BOND
     1    1    2       1
     2    1   18       2
     3    2    3       2
     4    2    4       1
     5    4    5       1
     6    5    6       2
     7    5    7       1
     8    7    8       2
     9    7   18       1
    10    8    9       1
    11    9   10      ar
    12    9   16      ar
    13   10   11      ar
    14   11   12       1
    15   11   13      ar
    16   13   14       1
    17   13   15      ar
    18   15   16      ar
    19   16   17       1
    20   17   18       1
    21   17   19       1
    22   19   20       1
    23   20   21       1
    24   20   22       1
    25   22   23       1
    26   22   24       1
    27   24   25       1
    28   24   26       1
    29   26   27       1
    30   27   28       1
    31   28   29      ar
    32   28   30      ar
    33   28   31      ar
    34    4   32       1
    35   10   33       1
    36   12   34       1
    37   12   35       1
    38   12   36       1
    39   14   37       1
    40   14   38       1
    41   14   39       1
    42   15   40       1
    43   19   41       1
    44   19   42       1
    45   20   43       1
    46   21   44       1
    47   22   45       1
    48   23   46       1
    49   24   47       1
    50   25   48       1
    51   26   49       1
    52   26   50       1
@<TRIPOS>SUBSTRUCTURE
     1 FMN200      1 GROUP             4 B     FMN     0 **** FMN B 200
