@<TRIPOS>MOLECULE
5fa1_C5P_1_ligand
   33    34     1     0     0
SMALL
NO_CHARGES


@<TRIPOS>ATOM
     1 O3P         11.8450    21.4480    21.7320 O.co2        1 C5P501   0.0000
     2 P           13.3090    21.3800    22.1270 P.3          1 C5P501   0.0000
     3 O1P         14.0340    22.5350    21.4700 O.co2        1 C5P501  -1.0000
     4 O2P         13.3800    21.2560    23.6260 O.co2        1 C5P501  -1.0000
     5 O5'         13.8840    20.0500    21.4450 O.3          1 C5P501   0.0000
     6 C5'         15.1330    19.4960    21.8360 C.3          1 C5P501   0.0000
     7 C4'         15.2420    18.0630    21.3790 C.3          1 C5P501   0.0000
     8 O4'         14.2160    17.2890    22.0450 O.3          1 C5P501   0.0000
     9 C3'         14.9830    17.8340    19.8960 C.3          1 C5P501   0.0000
    10 O3'         16.1300    18.0320    19.0950 O.3          1 C5P501   0.0000
    11 C2'         14.4470    16.4090    19.8440 C.3          1 C5P501   0.0000
    12 O2'         15.5040    15.4560    19.8390 O.3          1 C5P501   0.0000
    13 C1'         13.6980    16.3110    21.1720 C.3          1 C5P501   0.0000
    14 N1          12.2520    16.5580    21.0100 N.pl3        1 C5P501   0.0000
    15 C2          11.3940    15.4530    20.5590 C.2          1 C5P501   0.0000
    16 N3           9.9570    15.6800    20.4000 N.2          1 C5P501   0.0000
    17 C4           9.4050    16.9350    20.6890 C.2          1 C5P501   0.0000
    18 C5          10.2630    18.0500    21.1440 C.2          1 C5P501   0.0000
    19 C6          11.7050    17.8300    21.3020 C.2          1 C5P501   0.0000
    20 O2          11.8730    14.3640    20.3130 O.2          1 C5P501   0.0000
    21 N4           7.9770    17.1290    20.5340 N.pl3        1 C5P501   0.0000
    22 H5'1        15.2107    19.5304    22.8324 H            1 C5P501   0.0000
    23 H5'2        15.8725    20.0294    21.4254 H            1 C5P501   0.0000
    24 H4'         16.1428    17.7024    21.6208 H            1 C5P501   0.0000
    25 H3'         14.2650    18.4606    19.5928 H            1 C5P501   0.0000
    26 H5          16.7212    18.7158    19.5226 H            1 C5P501   0.0000
    27 H2'         13.8321    16.2775    19.0665 H            1 C5P501   0.0000
    28 H7          15.1205    14.5331    19.8046 H            1 C5P501   0.0000
    29 H1'         13.8386    15.4034    21.5675 H            1 C5P501   0.0000
    30 H9           9.8643    18.9454    21.3421 H            1 C5P501   0.0000
    31 H10         12.2968    18.5734    21.6137 H            1 C5P501   0.0000
    32 H11          7.5684    18.0190    20.7364 H            1 C5P501   0.0000
    33 H12          7.4003    16.3728    20.2247 H            1 C5P501   0.0000
@<TRIPOS>BOND
     1    1    2      ar
     2    2    3      ar
     3    2    4      ar
     4    2    5       1
     5    5    6       1
     6    6    7       1
     7    7    8       1
     8    7    9       1
     9    8   13       1
    10    9   10       1
    11    9   11       1
    12   11   12       1
    13   11   13       1
    14   13   14       1
    15   14   15       1
    16   14   19       1
    17   15   16       1
    18   15   20       2
    19   16   17       2
    20   17   18       1
    21   17   21       1
    22   18   19       2
    23   21   33       1
    24   21   32       1
    25    6   22       1
    26    6   23       1
    27    7   24       1
    28    9   25       1
    29   10   26       1
    30   11   27       1
    31   12   28       1
    32   13   29       1
    33   18   30       1
    34   19   31       1
@<TRIPOS>SUBSTRUCTURE
     1 C5P501      1 GROUP             4 A     C5P     0 **** C5P A 501
