@<TRIPOS>MOLECULE
./coach420/1j9k/ligand.pdb
 5 1 0 0 0
SMALL
GASTEIGER

@<TRIPOS>ATOM
      1 CA         11.6560   35.0540   10.8340 Ca    301  CA301       0.0000
      2  O1        11.9230   32.5970    6.7290 O.3   401  WO4401      0.0000
      3  O2         9.1800   32.3760    7.4210 O.3   401  WO4401      0.0000
      4  O3        10.8720   34.1290    8.8820 O.3   401  WO4401      0.0000
      5  O4        11.1690   31.3150    9.1550 O.3   401  WO4401      0.0000
@<TRIPOS>BOND
     1     1     4    1
