@<TRIPOS>MOLECULE
4qzu_RTL_2_ligand
   55    55     1     0     0
SMALL
NO_CHARGES


@<TRIPOS>ATOM
     1 C1          25.2470     9.9280    31.4840 C.3          1 RTL201   0.0000
     2 C2          25.0220     8.8060    30.4750 C.3          1 RTL201   0.0000
     3 C3          25.6050     7.4790    30.9440 C.3          1 RTL201   0.0000
     4 C4          27.1140     7.5960    31.0980 C.3          1 RTL201   0.0000
     5 C5          27.4020     8.6960    32.0940 C.2          1 RTL201   0.0000
     6 C6          26.4120     9.6190    32.4190 C.2          1 RTL201   0.0000
     7 C7          26.4760    10.2920    33.7230 C.3          1 RTL201   0.0000
     8 C8          26.7610    11.7190    33.8660 C.3          1 RTL201   0.0000
     9 C9          27.0400    12.2780    35.1960 C.2          1 RTL201   0.0000
    10 C10         25.9700    12.9550    35.9400 C.2          1 RTL201   0.0000
    11 C11         26.3010    13.8090    37.0870 C.3          1 RTL201   0.0000
    12 C12         25.2110    14.3900    37.8760 C.2          1 RTL201   0.0000
    13 C13         25.4890    15.5310    38.7540 C.2          1 RTL201   0.0000
    14 C14         24.3860    16.3180    39.3150 C.3          1 RTL201   0.0000
    15 C15         24.6750    17.7380    39.7400 C.3          1 RTL201   0.0000
    16 O1          24.2960    18.5810    38.6740 O.3          1 RTL201   0.0000
    17 C16         25.4750    11.2290    30.7290 C.3          1 RTL201   0.0000
    18 C17         24.0170    10.0900    32.3680 C.3          1 RTL201   0.0000
    19 C18         28.7450     8.7720    32.7590 C.3          1 RTL201   0.0000
    20 C19         28.4180    12.1620    35.7790 C.3          1 RTL201   0.0000
    21 C20         26.9080    15.9050    39.0650 C.3          1 RTL201   0.0000
    22 H1          25.4555     9.0597    29.6103 H            1 RTL201   0.0000
    23 H2          24.0384     8.6930    30.3342 H            1 RTL201   0.0000
    24 H3          25.3952     6.7694    30.2713 H            1 RTL201   0.0000
    25 H4          25.2007     7.2331    31.8250 H            1 RTL201   0.0000
    26 H5          27.5281     7.8208    30.2159 H            1 RTL201   0.0000
    27 H6          27.4886     6.7307    31.4312 H            1 RTL201   0.0000
    28 H7          27.1832     9.8155    34.2453 H            1 RTL201   0.0000
    29 H8          25.5861    10.1436    34.1543 H            1 RTL201   0.0000
    30 H9          25.9679    12.2102    33.5060 H            1 RTL201   0.0000
    31 H10         27.5599    11.9132    33.2968 H            1 RTL201   0.0000
    32 H11         25.0161    12.8342    35.6652 H            1 RTL201   0.0000
    33 H12         26.8484    14.5697    36.7381 H            1 RTL201   0.0000
    34 H13         26.8548    13.2590    37.7121 H            1 RTL201   0.0000
    35 H14         24.2871    14.0121    37.8161 H            1 RTL201   0.0000
    36 H15         24.0506    15.8287    40.1201 H            1 RTL201   0.0000
    37 H16         23.6649    16.3552    38.6232 H            1 RTL201   0.0000
    38 H17         25.6506    17.8460    39.9314 H            1 RTL201   0.0000
    39 H18         24.1476    17.9640    40.5590 H            1 RTL201   0.0000
    40 H19         24.8724    19.3982    38.6741 H            1 RTL201   0.0000
    41 H20         25.6237    11.9717    31.3820 H            1 RTL201   0.0000
    42 H21         26.2783    11.1366    30.1407 H            1 RTL201   0.0000
    43 H22         24.6729    11.4339    30.1681 H            1 RTL201   0.0000
    44 H23         24.1738    10.8270    33.0255 H            1 RTL201   0.0000
    45 H24         23.2251    10.3132    31.7996 H            1 RTL201   0.0000
    46 H25         23.8447     9.2361    32.8592 H            1 RTL201   0.0000
    47 H26         28.7643     9.5533    33.3829 H            1 RTL201   0.0000
    48 H27         28.9104     7.9305    33.2733 H            1 RTL201   0.0000
    49 H28         29.4553     8.8829    32.0639 H            1 RTL201   0.0000
    50 H29         28.4351    12.5911    36.6821 H            1 RTL201   0.0000
    51 H30         28.6637    11.1964    35.8641 H            1 RTL201   0.0000
    52 H31         29.0734    12.6212    35.1793 H            1 RTL201   0.0000
    53 H32         26.9179    16.6990    39.6728 H            1 RTL201   0.0000
    54 H33         27.3647    15.1365    39.5131 H            1 RTL201   0.0000
    55 H34         27.3874    16.1288    38.2164 H            1 RTL201   0.0000
@<TRIPOS>BOND
     1    1    2       1
     2    1    6       1
     3    1   17       1
     4    1   18       1
     5    2    3       1
     6    3    4       1
     7    4    5       1
     8    5    6       2
     9    5   19       1
    10    6    7       1
    11    7    8       1
    12    8    9       1
    13    9   10       2
    14    9   20       1
    15   10   11       1
    16   11   12       1
    17   12   13       2
    18   13   14       1
    19   13   21       1
    20   14   15       1
    21   15   16       1
    22    2   22       1
    23    2   23       1
    24    3   24       1
    25    3   25       1
    26    4   26       1
    27    4   27       1
    28    7   28       1
    29    7   29       1
    30    8   30       1
    31    8   31       1
    32   10   32       1
    33   11   33       1
    34   11   34       1
    35   12   35       1
    36   14   36       1
    37   14   37       1
    38   15   38       1
    39   15   39       1
    40   16   40       1
    41   17   41       1
    42   17   42       1
    43   17   43       1
    44   18   44       1
    45   18   45       1
    46   18   46       1
    47   19   47       1
    48   19   48       1
    49   19   49       1
    50   20   50       1
    51   20   51       1
    52   20   52       1
    53   21   53       1
    54   21   54       1
    55   21   55       1
@<TRIPOS>SUBSTRUCTURE
     1 RTL201      1 GROUP             4 B     RTL     0 **** RTL B 201
