@<TRIPOS>MOLECULE
4dx9_SER_ALA_VAL_THR_2_ligand
   54    53     4     0     0
SMALL
NO_CHARGES


@<TRIPOS>ATOM
     1 N          -28.8970    93.4300   -38.9770 N.4          1 SER785   1.0000
     2 CA         -29.8080    93.6230   -37.8110 C.3          1 SER785   0.0000
     3 C          -31.1090    94.2960   -38.2400 C.2          1 SER785   0.0000
     4 O          -32.1980    93.7690   -37.9950 O.2          1 SER785   0.0000
     5 CB         -29.1160    94.4400   -36.7180 C.3          1 SER785   0.0000
     6 OG         -29.8910    94.4680   -35.5340 O.3          1 SER785   0.0000
     7 H1         -28.7459    92.4524   -39.1237 H            1 SER785   0.0000
     8 H2         -29.3124    93.8294   -39.7943 H            1 SER785   0.0000
     9 HA         -30.0303    92.7232   -37.4355 H            1 SER785   0.0000
    10 HB1        -28.9842    95.3761   -37.0441 H            1 SER785   0.0000
    11 HB2        -28.2269    94.0289   -36.5166 H            1 SER785   0.0000
    12 HG         -29.4168    95.0071   -34.8379 H            1 SER785   0.0000
    13 N          -30.9850    95.4610   -38.8760 N.am         2 ALA786   0.0000
    14 CA         -32.1310    96.2050   -39.3990 C.3          2 ALA786   0.0000
    15 C          -31.7270    96.9920   -40.6440 C.2          2 ALA786   0.0000
    16 O          -30.8140    97.8180   -40.5910 O.2          2 ALA786   0.0000
    17 CB         -32.6950    97.1350   -38.3320 C.3          2 ALA786   0.0000
    18 H7         -30.0692    95.8428   -39.0010 H            2 ALA786   0.0000
    19 H8         -32.8422    95.5505   -39.6558 H            2 ALA786   0.0000
    20 H9         -33.4764    97.6353   -38.7051 H            2 ALA786   0.0000
    21 H10        -32.9900    96.5966   -37.5427 H            2 ALA786   0.0000
    22 HB3        -31.9888    97.7835   -38.0480 H            2 ALA786   0.0000
    23 N          -32.3930    96.7130   -41.7660 N.am         3 VAL787   0.0000
    24 CA         -32.1250    97.4120   -43.0340 C.3          3 VAL787   0.0000
    25 C          -33.4360    97.7550   -43.7680 C.2          3 VAL787   0.0000
    26 O          -33.5640    97.5330   -44.9780 O.2          3 VAL787   0.0000
    27 CB         -31.1780    96.6090   -43.9720 C.3          3 VAL787   0.0000
    28 CG1        -30.4100    97.5510   -44.8860 C.3          3 VAL787   0.0000
    29 CG2        -30.1950    95.7500   -43.1870 C.3          3 VAL787   0.0000
    30 H12        -33.0986    96.0047   -41.7451 H            3 VAL787   0.0000
    31 H13        -31.6694    98.2741   -42.8123 H            3 VAL787   0.0000
    32 HB         -31.7371    96.0059   -44.5410 H            3 VAL787   0.0000
    33 HG11       -29.8070    97.0199   -45.4813 H            3 VAL787   0.0000
    34 HG12       -31.0548    98.0728   -45.4446 H            3 VAL787   0.0000
    35 HG13       -29.8632    98.1797   -44.3331 H            3 VAL787   0.0000
    36 HG21       -29.6061    95.2514   -43.8231 H            3 VAL787   0.0000
    37 HG22       -29.6336    96.3356   -42.6023 H            3 VAL787   0.0000
    38 HG23       -30.6999    95.0990   -42.6202 H            3 VAL787   0.0000
    39 N          -34.4020    98.3040   -43.0280 N.am         4 THR788   0.0000
    40 CA         -35.7170    98.6580   -43.5810 C.3          4 THR788   0.0000
    41 C          -35.6460    99.8480   -44.5350 C.2          4 THR788   0.0000
    42 O          -35.9390    99.7210   -45.7240 O.2          4 THR788   0.0000
    43 CB         -36.7600    98.9450   -42.4740 C.3          4 THR788   0.0000
    44 OG1        -38.0560    99.1170   -43.0630 O.3          4 THR788   0.0000
    45 CG2        -36.4040   100.1970   -41.6810 C.3          4 THR788   0.0000
    46 H21        -34.2241    98.4812   -42.0601 H            4 THR788   0.0000
    47 H22        -36.0440    97.8717   -44.1053 H            4 THR788   0.0000
    48 H23        -35.3580   100.7413   -44.1899 H            4 THR788   0.0000
    49 H24        -36.7904    98.1649   -41.8491 H            4 THR788   0.0000
    50 HG1        -38.7583    98.8204   -42.4159 H            4 THR788   0.0000
    51 H26        -37.0960   100.3532   -40.9762 H            4 THR788   0.0000
    52 H27        -35.5102   100.0753   -41.2494 H            4 THR788   0.0000
    53 H28        -36.3722   100.9840   -42.2971 H            4 THR788   0.0000
    54 H29        -28.0222    93.8788   -38.7944 H            4 THR788   0.0000
@<TRIPOS>BOND
     1    1    2       1
     2    2    5       1
     3    2    3       1
     4    5    6       1
     5    3    4       2
     6    1    7       1
     7    1    8       1
     8    2    9       1
     9    3   13      am
    10    5   10       1
    11    5   11       1
    12    6   12       1
    13   13   14       1
    14   14   17       1
    15   14   15       1
    16   15   16       2
    17   17   22       1
    18   13   18       1
    19   14   19       1
    20   15   23      am
    21   17   20       1
    22   17   21       1
    23   23   24       1
    24   24   27       1
    25   24   25       1
    26   27   28       1
    27   27   29       1
    28   25   26       2
    29   29   38       1
    30   23   30       1
    31   24   31       1
    32   25   39      am
    33   27   32       1
    34   28   33       1
    35   28   34       1
    36   28   35       1
    37   29   36       1
    38   29   37       1
    39   39   40       1
    40   40   43       1
    41   40   41       1
    42   43   45       1
    43   43   44       1
    44   41   42       2
    45   45   53       1
    46   39   46       1
    47   40   47       1
    48   41   48       1
    49   43   49       1
    50   44   50       1
    51   45   51       1
    52   45   52       1
    53    1   54       1
@<TRIPOS>SUBSTRUCTURE
     1 SER785      1 RESIDUE           4 x     SER     0 **** SER x 785
     2 ALA786     13 RESIDUE           4 x     ALA     0 **** ALA x 786
     3 VAL787     23 RESIDUE           4 x     VAL     0 **** VAL x 787
     4 THR788     39 RESIDUE           4 x     THR     0 **** THR x 788
