@<TRIPOS>MOLECULE
4p68_MTX_1_ligand
   54    56     1     0     0
SMALL
NO_CHARGES


@<TRIPOS>ATOM
     1 N1          -2.2010     5.8100   -11.1040 N.ar         1 MTX201   1.0000
     2 C2          -3.3560     6.0750   -11.7310 C.ar         1 MTX201   0.0000
     3 NA2         -3.6320     7.3190   -12.1020 N.pl3        1 MTX201   0.0000
     4 N3          -4.2330     5.1020   -11.9670 N.ar         1 MTX201   0.0000
     5 C4          -3.9690     3.8640   -11.5650 C.ar         1 MTX201   0.0000
     6 NA4         -4.8200     2.8700   -11.7780 N.pl3        1 MTX201   0.0000
     7 C4A         -2.7750     3.5570   -10.9340 C.ar         1 MTX201   0.0000
     8 N5          -2.4990     2.3020   -10.5350 N.pl3        1 MTX201   0.0000
     9 C6          -1.3560     1.9860    -9.8850 C.2          1 MTX201   0.0000
    10 C7          -0.4190     3.0210    -9.6600 C.2          1 MTX201   0.0000
    11 N8          -0.7230     4.3450   -10.0720 N.2          1 MTX201   0.0000
    12 C8A         -1.8830     4.5820   -10.6950 C.ar         1 MTX201   0.0000
    13 C9          -1.1880     0.6050    -9.5650 C.2          1 MTX201   0.0000
    14 N10         -0.0500     0.2910    -8.7060 N.pl3        1 MTX201   0.0000
    15 CM           0.8730    -0.7990    -9.0930 C.3          1 MTX201   0.0000
    16 C11          0.5060     2.1310    -5.0730 C.ar         1 MTX201   0.0000
    17 C12          1.6150     1.7590    -5.8170 C.ar         1 MTX201   0.0000
    18 C13          1.4360     1.1470    -7.0520 C.ar         1 MTX201   0.0000
    19 C14          0.1510     0.8780    -7.5260 C.ar         1 MTX201   0.0000
    20 C15         -0.9520     1.2450    -6.7640 C.ar         1 MTX201   0.0000
    21 C16         -0.7690     1.8600    -5.5400 C.ar         1 MTX201   0.0000
    22 C            0.6160     2.7300    -3.8300 C.2          1 MTX201   0.0000
    23 O            1.1470     2.1150    -2.9050 O.2          1 MTX201   0.0000
    24 N            0.0190     3.9330    -3.6820 N.am         1 MTX201   0.0000
    25 CA          -0.0210     4.5780    -2.3510 C.3          1 MTX201   0.0000
    26 CT          -1.4380     4.3290    -1.7570 C.2          1 MTX201   0.0000
    27 O1          -2.4290     4.5940    -2.4780 O.co2        1 MTX201   0.0000
    28 O2          -1.4940     3.8610    -0.5880 O.co2        1 MTX201  -1.0000
    29 CB           0.3350     6.1010    -2.3510 C.3          1 MTX201   0.0000
    30 CG           1.5340     6.3200    -1.4160 C.3          1 MTX201   0.0000
    31 CD           2.7580     5.5190    -1.9050 C.2          1 MTX201   0.0000
    32 OE1          3.6130     5.2000    -1.0380 O.co2        1 MTX201   0.0000
    33 OE2          2.8360     5.2340    -3.1230 O.co2        1 MTX201  -1.0000
    34 HA21        -4.4921     7.5220   -12.5700 H            1 MTX201   0.0000
    35 HA22        -2.9799     8.0533   -11.9136 H            1 MTX201   0.0000
    36 HA41        -4.5982     1.9463   -11.4656 H            1 MTX201   0.0000
    37 HA42        -5.6837     3.0439   -12.2511 H            1 MTX201   0.0000
    38 H5          -3.1619     1.5780   -10.7257 H            1 MTX201   0.0000
    39 H6           0.4530     2.8213    -9.2131 H            1 MTX201   0.0000
    40 H7          -1.8087    -0.1007    -9.9066 H            1 MTX201   0.0000
    41 HM1          1.5931    -0.8861    -8.4047 H            1 MTX201   0.0000
    42 HM2          0.3660    -1.6587    -9.1556 H            1 MTX201   0.0000
    43 HM3          1.2836    -0.5888    -9.9802 H            1 MTX201   0.0000
    44 H11          2.5364     1.9296    -5.4679 H            1 MTX201   0.0000
    45 H12          2.2320     0.8981    -7.6038 H            1 MTX201   0.0000
    46 H13         -1.8761     1.0644    -7.1008 H            1 MTX201   0.0000
    47 H14         -1.5636     2.1112    -4.9873 H            1 MTX201   0.0000
    48 H15         -0.3953     4.3868    -4.4710 H            1 MTX201   0.0000
    49 HA           0.6413     4.1103    -1.7657 H            1 MTX201   0.0000
    50 HB1         -0.4482     6.6307    -2.0253 H            1 MTX201   0.0000
    51 HB2          0.5721     6.3922    -3.2778 H            1 MTX201   0.0000
    52 HG1          1.2910     6.0185    -0.4940 H            1 MTX201   0.0000
    53 HG2          1.7637     7.2931    -1.3987 H            1 MTX201   0.0000
    54 H21         -1.5577     6.5574   -10.9379 H            1 MTX201   0.0000
@<TRIPOS>BOND
     1    1    2      ar
     2    1   12      ar
     3    2    3       1
     4    2    4      ar
     5    4    5      ar
     6    5    6       1
     7    5    7      ar
     8    7    8       1
     9    7   12      ar
    10    8    9       1
    11    9   10       1
    12    9   13       2
    13   10   11       2
    14   11   12       1
    15   13   14       1
    16   14   15       1
    17   14   19       1
    18   16   17      ar
    19   16   21      ar
    20   16   22       1
    21   17   18      ar
    22   18   19      ar
    23   19   20      ar
    24   20   21      ar
    25   22   23       2
    26   22   24      am
    27   24   25       1
    28   25   26       1
    29   25   29       1
    30   26   27      ar
    31   26   28      ar
    32   29   30       1
    33   30   31       1
    34   31   32      ar
    35   31   33      ar
    36    3   34       1
    37    3   35       1
    38    6   36       1
    39    6   37       1
    40    8   38       1
    41   10   39       1
    42   13   40       1
    43   15   41       1
    44   15   42       1
    45   15   43       1
    46   17   44       1
    47   18   45       1
    48   20   46       1
    49   21   47       1
    50   24   48       1
    51   25   49       1
    52   30   53       1
    53   29   50       1
    54   29   51       1
    55   30   52       1
    56    1   54       1
@<TRIPOS>SUBSTRUCTURE
     1 MTX201      1 GROUP             4 A     MTX     0 **** MTX A 201
