@<TRIPOS>MOLECULE
3ngu_ADP_2_ligand
   39    41     1     0     0
SMALL
NO_CHARGES


@<TRIPOS>ATOM
     1 PB          -5.5970   -17.5970   -45.9200 P.3          1 ADP152   0.0000
     2 O1B         -7.1350   -17.6470   -46.0240 O.co2        1 ADP152   0.0000
     3 O2B         -4.9790   -16.1890   -46.1250 O.co2        1 ADP152  -1.0000
     4 O3B         -5.0550   -18.2470   -44.6340 O.co2        1 ADP152  -1.0000
     5 PA          -4.9970   -19.8840   -48.0080 P.3          1 ADP152   0.0000
     6 O1A         -3.6860   -20.1460   -48.7750 O.co2        1 ADP152   0.0000
     7 O2A         -6.2260   -19.9750   -48.9400 O.co2        1 ADP152  -1.0000
     8 O3A         -5.0780   -18.3230   -47.3550 O.3          1 ADP152   0.0000
     9 O5'         -5.0060   -20.9060   -46.6760 O.3          1 ADP152   0.0000
    10 C5'         -3.8400   -21.7210   -46.4220 C.3          1 ADP152   0.0000
    11 C4'         -3.0600   -21.8040   -45.0810 C.3          1 ADP152   0.0000
    12 O4'         -2.0590   -22.8830   -45.2320 O.3          1 ADP152   0.0000
    13 C3'         -2.2380   -20.5760   -44.6230 C.3          1 ADP152   0.0000
    14 O3'         -3.0260   -19.6830   -43.7860 O.3          1 ADP152   0.0000
    15 C2'         -0.8540   -21.2110   -44.1790 C.3          1 ADP152   0.0000
    16 O2'         -0.5780   -21.5450   -42.7740 O.3          1 ADP152   0.0000
    17 C1'         -0.6820   -22.5210   -45.0470 C.3          1 ADP152   0.0000
    18 N9          -0.1110   -22.2850   -46.4190 N.pl3        1 ADP152   0.0000
    19 C8          -0.7840   -21.6500   -47.4220 C.2          1 ADP152   0.0000
    20 N7          -0.0630   -21.5110   -48.5560 N.2          1 ADP152   0.0000
    21 C5           1.1490   -22.0980   -48.3140 C.ar         1 ADP152   0.0000
    22 C6           2.4170   -22.3520   -49.1300 C.ar         1 ADP152   0.0000
    23 N6           2.5590   -21.9060   -50.4490 N.pl3        1 ADP152   0.0000
    24 N1           3.4370   -23.0180   -48.4460 N.ar         1 ADP152   0.0000
    25 C2           3.3190   -23.4370   -47.1370 C.ar         1 ADP152   0.0000
    26 N3           2.2010   -23.2620   -46.3850 N.ar         1 ADP152   0.0000
    27 C4           1.1070   -22.6120   -46.8930 C.ar         1 ADP152   0.0000
    28 H5'1        -3.1649   -21.4319   -47.1007 H            1 ADP152   0.0000
    29 H5'2        -4.1279   -22.6587   -46.6166 H            1 ADP152   0.0000
    30 H4'         -3.6973   -22.0552   -44.3525 H            1 ADP152   0.0000
    31 H3'         -2.0411   -20.0590   -45.4560 H            1 ADP152   0.0000
    32 H5          -3.8189   -19.3569   -44.3007 H            1 ADP152   0.0000
    33 H2'         -0.1386   -20.5759   -44.4704 H            1 ADP152   0.0000
    34 H7           0.2181   -21.0284   -42.4588 H            1 ADP152   0.0000
    35 H1'         -0.1768   -23.2285   -44.5528 H            1 ADP152   0.0000
    36 H9          -1.7227   -21.3187   -47.3266 H            1 ADP152   0.0000
    37 H10          3.4037   -22.0912   -50.9512 H            1 ADP152   0.0000
    38 H11          1.8158   -21.4022   -50.8892 H            1 ADP152   0.0000
    39 H12          4.1018   -23.8962   -46.7172 H            1 ADP152   0.0000
@<TRIPOS>BOND
     1    1    2      ar
     2    1    3      ar
     3    1    4      ar
     4    1    8       1
     5    5    6      ar
     6    5    7      ar
     7    5    8       1
     8    5    9       1
     9    9   10       1
    10   10   11       1
    11   11   12       1
    12   11   13       1
    13   12   17       1
    14   13   14       1
    15   13   15       1
    16   15   16       1
    17   15   17       1
    18   17   18       1
    19   18   19       1
    20   18   27       1
    21   19   20       2
    22   20   21       1
    23   21   22      ar
    24   21   27      ar
    25   22   23       1
    26   22   24      ar
    27   24   25      ar
    28   25   26      ar
    29   26   27      ar
    30   25   39       1
    31   23   38       1
    32   23   37       1
    33   10   28       1
    34   10   29       1
    35   11   30       1
    36   13   31       1
    37   14   32       1
    38   15   33       1
    39   16   34       1
    40   17   35       1
    41   19   36       1
@<TRIPOS>SUBSTRUCTURE
     1 ADP152      1 GROUP             4 B     ADP     0 **** ADP B 152
