@<TRIPOS>MOLECULE
2qz4_ADP_1_ligand
   39    41     1     0     0
SMALL
NO_CHARGES


@<TRIPOS>ATOM
     1 PB           8.2050    23.4370     9.3480 P.3          1 ADP700   0.0000
     2 O1B          7.9770    24.3850     8.1550 O.co2        1 ADP700   0.0000
     3 O2B          9.6320    23.3880     9.6440 O.co2        1 ADP700  -1.0000
     4 O3B          7.7550    22.0010     9.3770 O.co2        1 ADP700  -1.0000
     5 PA           6.2970    25.2140    10.6600 P.3          1 ADP700   0.0000
     6 O1A          6.5810    26.6060    10.2990 O.co2        1 ADP700   0.0000
     7 O2A          5.1320    24.4730    10.0790 O.co2        1 ADP700  -1.0000
     8 O3A          7.6310    24.3780    10.5530 O.3          1 ADP700   0.0000
     9 O5'          6.0500    25.1170    12.3020 O.3          1 ADP700   0.0000
    10 C5'          4.7300    24.9680    12.8610 C.3          1 ADP700   0.0000
    11 C4'          4.5700    25.9720    14.0160 C.3          1 ADP700   0.0000
    12 O4'          5.4790    25.6690    15.1240 O.3          1 ADP700   0.0000
    13 C3'          4.8980    27.4190    13.6930 C.3          1 ADP700   0.0000
    14 O3'          3.8450    28.0900    13.0040 O.3          1 ADP700   0.0000
    15 C2'          5.1100    27.9950    15.1080 C.3          1 ADP700   0.0000
    16 O2'          3.8430    28.2800    15.7800 O.3          1 ADP700   0.0000
    17 C1'          5.8500    26.8620    15.8130 C.3          1 ADP700   0.0000
    18 N9           7.3020    27.0750    15.6810 N.pl3        1 ADP700   0.0000
    19 C8           8.1920    26.2690    15.0980 C.2          1 ADP700   0.0000
    20 N7           9.4290    26.8180    15.1270 N.2          1 ADP700   0.0000
    21 C5           9.2980    27.9940    15.7750 C.ar         1 ADP700   0.0000
    22 C6          10.2250    29.0350    16.1950 C.ar         1 ADP700   0.0000
    23 N6          11.5260    28.8990    15.8580 N.pl3        1 ADP700   0.0000
    24 N1           9.7410    30.1060    16.8200 N.ar         1 ADP700   0.0000
    25 C2           8.4400    30.2020    17.1370 C.ar         1 ADP700   0.0000
    26 N3           7.5400    29.2540    16.8530 N.ar         1 ADP700   0.0000
    27 C4           7.9220    28.1660    16.1360 C.ar         1 ADP700   0.0000
    28 H5'1         4.6132    24.0366    13.2056 H            1 ADP700   0.0000
    29 H5'2         4.0435    25.1516    12.1575 H            1 ADP700   0.0000
    30 H4'          3.6294    25.9249    14.3523 H            1 ADP700   0.0000
    31 H3'          5.7463    27.4728    13.1662 H            1 ADP700   0.0000
    32 H5           3.8626    29.0629    13.2347 H            1 ADP700   0.0000
    33 H2'          5.6796    28.8161    15.0707 H            1 ADP700   0.0000
    34 H7           3.9581    28.1731    16.7676 H            1 ADP700   0.0000
    35 H1'          5.5856    26.8116    16.7761 H            1 ADP700   0.0000
    36 H9           7.9745    25.3802    14.6946 H            1 ADP700   0.0000
    37 H10         12.1888    29.5963    16.1310 H            1 ADP700   0.0000
    38 H11         11.8264    28.1010    15.3355 H            1 ADP700   0.0000
    39 H12          8.1273    31.0255    17.6103 H            1 ADP700   0.0000
@<TRIPOS>BOND
     1    1    2      ar
     2    1    3      ar
     3    1    4      ar
     4    1    8       1
     5    5    6      ar
     6    5    7      ar
     7    5    8       1
     8    5    9       1
     9    9   10       1
    10   10   11       1
    11   11   12       1
    12   11   13       1
    13   12   17       1
    14   13   14       1
    15   13   15       1
    16   15   16       1
    17   15   17       1
    18   17   18       1
    19   18   19       1
    20   18   27       1
    21   19   20       2
    22   20   21       1
    23   21   22      ar
    24   21   27      ar
    25   22   23       1
    26   22   24      ar
    27   24   25      ar
    28   25   26      ar
    29   26   27      ar
    30   25   39       1
    31   23   38       1
    32   23   37       1
    33   10   28       1
    34   10   29       1
    35   11   30       1
    36   13   31       1
    37   14   32       1
    38   15   33       1
    39   16   34       1
    40   17   35       1
    41   19   36       1
@<TRIPOS>SUBSTRUCTURE
     1 ADP700      1 GROUP             4 A     ADP     0 **** ADP A 700
