@<TRIPOS>MOLECULE
2i6b_89I_2_ligand
   54    57     1     0     0
SMALL
NO_CHARGES


@<TRIPOS>ATOM
     1 C1          58.3730    58.7550    10.1040 C.ar         1 89I500   0.0000
     2 N2          59.3370    59.0730    10.9370 N.ar         1 89I500   0.0000
     3 C3          60.4390    58.3350    10.7680 C.ar         1 89I500   0.0000
     4 C4          60.6220    57.3300     9.8560 C.ar         1 89I500   0.0000
     5 C5          59.5180    57.1110     9.0530 C.ar         1 89I500   0.0000
     6 N6          58.3900    57.8020     9.1780 N.ar         1 89I500   0.0000
     7 C8          61.8940    56.6420     9.6970 C.ar         1 89I500   0.0000
     8 C9          62.9100    57.3970     9.1950 C.ar         1 89I500   0.0000
     9 C10         64.1630    56.8760     8.9490 C.ar         1 89I500   0.0000
    10 C11         64.4690    55.5710     9.2130 C.ar         1 89I500   0.0000
    11 C12         63.4430    54.8170     9.7520 C.ar         1 89I500   0.0000
    12 C13         62.1800    55.3360     9.9800 C.ar         1 89I500   0.0000
    13 C18         63.5960    58.9870    14.4710 C.ar         1 89I500   0.0000
    14 N19         64.5500    58.7520    15.3770 N.ar         1 89I500   0.0000
    15 C20         65.4670    57.8320    14.9990 C.ar         1 89I500   0.0000
    16 C21         65.4240    57.1640    13.7810 C.ar         1 89I500   0.0000
    17 C22         64.3950    57.4230    12.8950 C.ar         1 89I500   0.0000
    18 C23         63.4860    58.3790    13.2570 C.ar         1 89I500   0.0000
    19 C27         67.4060    56.3960    15.4160 C.3          1 89I500   0.0000
    20 C28         68.7720    56.5630    16.0780 C.3          1 89I500   0.0000
    21 O29         68.5420    56.8910    17.4530 O.3          1 89I500   0.0000
    22 C30         67.9010    58.1370    17.5940 C.3          1 89I500   0.0000
    23 C31         66.4600    57.9420    17.1830 C.3          1 89I500   0.0000
    24 N32         66.5550    57.5160    15.8340 N.pl3        1 89I500   0.0000
    25 C41         61.5220    58.6380    11.6170 C.1          1 89I500   0.0000
    26 C42         62.4100    58.6670    12.4490 C.1          1 89I500   0.0000
    27 N43         65.7970    55.1410     8.9090 N.pl3        1 89I500   0.0000
    28 C44         66.0730    53.6950     9.0130 C.3          1 89I500   0.0000
    29 C48         66.0180    55.6340     7.5550 C.3          1 89I500   0.0000
    30 N52         59.5700    56.1260     8.0910 N.pl3        1 89I500   0.0000
    31 H1          57.5313    59.2903    10.1744 H            1 89I500   0.0000
    32 H2          62.7417    58.3628     8.9979 H            1 89I500   0.0000
    33 H3          64.8690    57.4715     8.5657 H            1 89I500   0.0000
    34 H4          63.6199    53.8610     9.9859 H            1 89I500   0.0000
    35 H5          61.4661    54.7462    10.3575 H            1 89I500   0.0000
    36 H6          62.9025    59.6685    14.7047 H            1 89I500   0.0000
    37 H7          66.1337    56.4995    13.5468 H            1 89I500   0.0000
    38 H8          64.3184    56.9326    12.0269 H            1 89I500   0.0000
    39 H9          66.9936    55.5316    15.7037 H            1 89I500   0.0000
    40 H10         67.5088    56.4016    14.4213 H            1 89I500   0.0000
    41 H11         69.2811    57.2987    15.6313 H            1 89I500   0.0000
    42 H12         69.2908    55.7107    16.0117 H            1 89I500   0.0000
    43 H13         68.3374    58.8163    17.0040 H            1 89I500   0.0000
    44 H14         67.9485    58.4419    18.5452 H            1 89I500   0.0000
    45 H15         65.9496    58.7991    17.2520 H            1 89I500   0.0000
    46 H16         66.0185    57.2447    17.7477 H            1 89I500   0.0000
    47 H17         67.0291    53.5204     8.7775 H            1 89I500   0.0000
    48 H18         65.8990    53.3889     9.9490 H            1 89I500   0.0000
    49 H19         65.4780    53.1959     8.3830 H            1 89I500   0.0000
    50 H20         66.9358    55.3769     7.2523 H            1 89I500   0.0000
    51 H21         65.3395    55.2331     6.9394 H            1 89I500   0.0000
    52 H22         65.9303    56.6301     7.5445 H            1 89I500   0.0000
    53 H23         58.7780    55.9580     7.5040 H            1 89I500   0.0000
    54 H24         60.3997    55.5791     7.9798 H            1 89I500   0.0000
@<TRIPOS>BOND
     1    1    2      ar
     2    1    6      ar
     3    2    3      ar
     4    3    4      ar
     5    3   25       1
     6    4    5      ar
     7    4    7       1
     8    5    6      ar
     9    5   30       1
    10    7    8      ar
    11    7   12      ar
    12    8    9      ar
    13    9   10      ar
    14   10   11      ar
    15   10   27       1
    16   11   12      ar
    17   13   14      ar
    18   13   18      ar
    19   14   15      ar
    20   15   16      ar
    21   15   24       1
    22   16   17      ar
    23   17   18      ar
    24   18   26       1
    25   19   20       1
    26   19   24       1
    27   20   21       1
    28   21   22       1
    29   22   23       1
    30   23   24       1
    31   25   26       3
    32   27   28       1
    33   27   29       1
    34    1   31       1
    35    8   32       1
    36    9   33       1
    37   11   34       1
    38   12   35       1
    39   13   36       1
    40   16   37       1
    41   17   38       1
    42   19   39       1
    43   19   40       1
    44   20   41       1
    45   20   42       1
    46   22   43       1
    47   22   44       1
    48   23   45       1
    49   23   46       1
    50   28   47       1
    51   28   48       1
    52   28   49       1
    53   29   50       1
    54   29   51       1
    55   29   52       1
    56   30   53       1
    57   30   54       1
@<TRIPOS>SUBSTRUCTURE
     1 89I500      1 GROUP             4 B     89I     0 **** 89I B 500
