@<TRIPOS>MOLECULE
4ogl_TDR_4_ligand
   15    15     1     0     0
SMALL
NO_CHARGES


@<TRIPOS>ATOM
     1 N1          51.4530   -10.1980   -16.4190 N.pl3        1 TDR301   0.0000
     2 C2          50.9810   -10.4520   -15.1060 C.2          1 TDR301   0.0000
     3 O2          50.8430    -9.5590   -14.2880 O.2          1 TDR301   0.0000
     4 N3          50.6420   -11.7620   -14.7590 N.pl3        1 TDR301   0.0000
     5 C4          50.7870   -12.8450   -15.6340 C.2          1 TDR301   0.0000
     6 O4          50.4940   -13.9780   -15.2780 O.2          1 TDR301   0.0000
     7 C5          51.2950   -12.5660   -16.9840 C.2          1 TDR301   0.0000
     8 CM5         51.4660   -13.6770   -17.9650 C.3          1 TDR301   0.0000
     9 C6          51.6120   -11.2780   -17.3400 C.2          1 TDR301   0.0000
    10 H1          51.6742    -9.2640   -16.6996 H            1 TDR301   0.0000
    11 H2          50.2790   -11.9340   -13.8432 H            1 TDR301   0.0000
    12 HM51        51.8185   -13.3102   -18.8259 H            1 TDR301   0.0000
    13 HM52        52.1112   -14.3480   -17.5996 H            1 TDR301   0.0000
    14 HM53        50.5830   -14.1175   -18.1270 H            1 TDR301   0.0000
    15 H6          51.9599   -11.0933   -18.2592 H            1 TDR301   0.0000
@<TRIPOS>BOND
     1    1    2       1
     2    1    9       1
     3    2    3       2
     4    2    4       1
     5    4    5       1
     6    5    6       2
     7    5    7       1
     8    7    8       1
     9    7    9       2
    10    1   10       1
    11    4   11       1
    12    8   12       1
    13    8   13       1
    14    8   14       1
    15    9   15       1
@<TRIPOS>SUBSTRUCTURE
     1 TDR301      1 GROUP             4 D     TDR     0 **** TDR D 301
