@<TRIPOS>MOLECULE
4ws0_URF_1_ligand
   12    12     1     0     0
SMALL
NO_CHARGES


@<TRIPOS>ATOM
     1 N1          58.6110     1.7150   144.7850 N.pl3        1 URF301   0.0000
     2 C2          58.8600     2.8830   145.4160 C.2          1 URF301   0.0000
     3 N3          59.7040     2.9700   146.4540 N.pl3        1 URF301   0.0000
     4 C4          60.3440     1.9110   146.9310 C.2          1 URF301   0.0000
     5 C5          60.0860     0.6750   146.2230 C.2          1 URF301   0.0000
     6 C6          59.2280     0.6160   145.1790 C.2          1 URF301   0.0000
     7 O2          58.3190     3.9430   145.0110 O.2          1 URF301   0.0000
     8 O4          61.1710     1.8920   147.9010 O.2          1 URF301   0.0000
     9 F5          60.7550    -0.3590   146.6750 F            1 URF301   0.0000
    10 H1          57.9632     1.6827   144.0239 H            1 URF301   0.0000
    11 H2          59.8556     3.8611   146.8818 H            1 URF301   0.0000
    12 H3          59.0625    -0.2516   144.7100 H            1 URF301   0.0000
@<TRIPOS>BOND
     1    1    2       1
     2    1    6       1
     3    2    3       1
     4    2    7       2
     5    3    4       1
     6    4    5       1
     7    4    8       2
     8    5    6       2
     9    5    9       1
    10    1   10       1
    11    3   11       1
    12    6   12       1
@<TRIPOS>SUBSTRUCTURE
     1 URF301      1 GROUP             4 A     URF     0 **** URF A 301
