@<TRIPOS>MOLECULE
2xrw_ANP_1_ligand
   41    43     1     0     0
SMALL
NO_CHARGES


@<TRIPOS>ATOM
     1 PB          13.6510     4.8750    15.0860 P.3          1 ANP1367   0.0000
     2 O1B         13.4580     3.3270    15.4030 O.co2        1 ANP1367   0.0000
     3 O2B         12.3580     5.7650    14.7240 O.co2        1 ANP1367  -1.0000
     4 N3B         14.9200     4.7570    13.9780 N.3          1 ANP1367   0.0000
     5 PA          14.2760     6.6560    17.2150 P.3          1 ANP1367   0.0000
     6 O1A         15.7830     6.7210    17.5150 O.co2        1 ANP1367   0.0000
     7 O2A         13.6330     7.8600    16.5920 O.co2        1 ANP1367  -1.0000
     8 O3A         14.4110     5.2930    16.4340 O.3          1 ANP1367   0.0000
     9 O5'         13.5570     6.2190    18.5180 O.3          1 ANP1367   0.0000
    10 C5'         13.7740     5.0240    19.1860 C.3          1 ANP1367   0.0000
    11 C4'         12.7840     4.7320    20.2120 C.3          1 ANP1367   0.0000
    12 O4'         12.8260     5.8180    21.0970 O.3          1 ANP1367   0.0000
    13 C3'         11.4090     4.7450    19.6550 C.3          1 ANP1367   0.0000
    14 O3'         11.0890     3.5060    19.1020 O.3          1 ANP1367   0.0000
    15 C2'         10.6420     5.0980    20.8290 C.3          1 ANP1367   0.0000
    16 O2'         10.3890     3.9920    21.6680 O.3          1 ANP1367   0.0000
    17 C1'         11.4830     6.1090    21.5230 C.3          1 ANP1367   0.0000
    18 N9          11.1430     7.4760    21.1950 N.pl3        1 ANP1367   0.0000
    19 C8          11.6560     8.2850    20.2560 C.2          1 ANP1367   0.0000
    20 N7          11.1040     9.4700    20.2240 N.2          1 ANP1367   0.0000
    21 C5          10.1630     9.4250    21.2290 C.ar         1 ANP1367   0.0000
    22 C6           9.2770    10.3750    21.7090 C.ar         1 ANP1367   0.0000
    23 N6           9.1820    11.6610    21.1050 N.pl3        1 ANP1367   0.0000
    24 N1           8.4710    10.0190    22.7450 N.ar         1 ANP1367   0.0000
    25 C2           8.5610     8.8190    23.2780 C.ar         1 ANP1367   0.0000
    26 N3           9.4030     7.8530    22.8690 N.ar         1 ANP1367   0.0000
    27 C4          10.1970     8.1940    21.8420 C.ar         1 ANP1367   0.0000
    28 H3B1        15.7119     5.2607    14.3233 H            1 ANP1367   0.0000
    29 H3B2        15.1651     3.7956    13.8530 H            1 ANP1367   0.0000
    30 H5'1        14.6740     5.0651    19.6199 H            1 ANP1367   0.0000
    31 H5'2        13.7607     4.2820    18.5157 H            1 ANP1367   0.0000
    32 H4'         12.9826     3.8703    20.6789 H            1 ANP1367   0.0000
    33 H3'         11.3260     5.4617    18.9625 H            1 ANP1367   0.0000
    34 H7          10.8806     3.6184    18.1304 H            1 ANP1367   0.0000
    35 H2'          9.7761     5.5144    20.5519 H            1 ANP1367   0.0000
    36 H9           9.8579     4.2899    22.4612 H            1 ANP1367   0.0000
    37 H1'         11.4124     5.9774    22.5118 H            1 ANP1367   0.0000
    38 H11         12.3918     8.0078    19.6382 H            1 ANP1367   0.0000
    39 H12          8.5369    12.3356    21.4639 H            1 ANP1367   0.0000
    40 H13          9.7604    11.8896    20.3219 H            1 ANP1367   0.0000
    41 H14          7.9566     8.6091    24.0466 H            1 ANP1367   0.0000
@<TRIPOS>BOND
     1    1    2      ar
     2    1    3      ar
     3    1    4       1
     4    1    8       1
     5    5    6      ar
     6    5    7      ar
     7    5    8       1
     8    5    9       1
     9    9   10       1
    10   10   11       1
    11   11   12       1
    12   11   13       1
    13   12   17       1
    14   13   14       1
    15   13   15       1
    16   15   16       1
    17   15   17       1
    18   17   18       1
    19   18   19       1
    20   18   27       1
    21   19   20       2
    22   20   21       1
    23   21   22      ar
    24   21   27      ar
    25   22   23       1
    26   22   24      ar
    27   24   25      ar
    28   25   26      ar
    29   26   27      ar
    30   25   41       1
    31    4   28       1
    32    4   29       1
    33   23   40       1
    34   10   30       1
    35   10   31       1
    36   11   32       1
    37   13   33       1
    38   14   34       1
    39   15   35       1
    40   16   36       1
    41   17   37       1
    42   19   38       1
    43   23   39       1
@<TRIPOS>SUBSTRUCTURE
     1 ANP1367     1 GROUP             4 A     ANP     0 **** ANP A1367
