@<TRIPOS>MOLECULE
1jqi_FAD_2_ligand
   84    89     1     0     0
SMALL
NO_CHARGES


@<TRIPOS>ATOM
     1 PA         -28.3390    89.6420    25.2970 P.3          1 FAD399   0.0000
     2 O1A        -28.3200    91.0160    25.8250 O.co2        1 FAD399   0.0000
     3 O2A        -27.0960    89.0710    24.7390 O.co2        1 FAD399  -1.0000
     4 O5B        -28.8690    88.6950    26.4590 O.3          1 FAD399   0.0000
     5 C5B        -28.8260    87.2790    26.5370 C.3          1 FAD399   0.0000
     6 C4B        -29.4200    86.6910    27.8320 C.3          1 FAD399   0.0000
     7 O4B        -28.6790    87.1780    28.9700 O.3          1 FAD399   0.0000
     8 C3B        -30.9060    87.1050    28.0300 C.3          1 FAD399   0.0000
     9 O3B        -31.6150    86.0600    28.6760 O.3          1 FAD399   0.0000
    10 C2B        -30.7760    88.2710    29.0180 C.3          1 FAD399   0.0000
    11 O2B        -31.9080    88.4000    29.8790 O.3          1 FAD399   0.0000
    12 C1B        -29.5500    87.8760    29.8530 C.3          1 FAD399   0.0000
    13 N9A        -28.9460    89.0970    30.4720 N.pl3        1 FAD399   0.0000
    14 C8A        -28.3220    90.1580    29.8700 C.2          1 FAD399   0.0000
    15 N7A        -27.8990    91.0810    30.6860 N.2          1 FAD399   0.0000
    16 C5A        -28.2650    90.6040    31.9350 C.ar         1 FAD399   0.0000
    17 C6A        -28.1160    91.1050    33.2560 C.ar         1 FAD399   0.0000
    18 N6A        -27.5250    92.2550    33.5500 N.pl3        1 FAD399   0.0000
    19 N1A        -28.6010    90.3660    34.2740 N.ar         1 FAD399   0.0000
    20 C2A        -29.1980    89.2130    34.0280 C.ar         1 FAD399   0.0000
    21 N3A        -29.3970    88.6470    32.8460 N.ar         1 FAD399   0.0000
    22 C4A        -28.9040    89.3980    31.8170 C.ar         1 FAD399   0.0000
    23 N1         -33.8740    96.5240    19.2190 N.2          1 FAD399   0.0000
    24 C2         -34.0850    97.8370    18.8550 C.2          1 FAD399   0.0000
    25 O2         -33.3800    98.7730    19.2350 O.2          1 FAD399   0.0000
    26 N3         -35.1600    98.0940    18.0080 N.pl3        1 FAD399   0.0000
    27 C4         -36.0480    97.1580    17.4840 C.2          1 FAD399   0.0000
    28 O4         -36.9360    97.6020    16.7470 O.2          1 FAD399   0.0000
    29 C4X        -35.7980    95.7640    17.8760 C.2          1 FAD399   0.0000
    30 N5         -36.6610    94.8280    17.3400 N.2          1 FAD399   0.0000
    31 C5X        -36.3890    93.5280    17.6940 C.ar         1 FAD399   0.0000
    32 C6         -37.2460    92.5370    17.1170 C.ar         1 FAD399   0.0000
    33 C7         -37.1030    91.1920    17.3410 C.ar         1 FAD399   0.0000
    34 C7M        -38.0650    90.2250    16.6610 C.3          1 FAD399   0.0000
    35 C8         -36.0360    90.7450    18.2130 C.ar         1 FAD399   0.0000
    36 C8M        -35.8120    89.2640    18.5000 C.3          1 FAD399   0.0000
    37 C9         -35.2000    91.6740    18.7890 C.ar         1 FAD399   0.0000
    38 C9A        -35.3400    93.0780    18.5480 C.ar         1 FAD399   0.0000
    39 N10        -34.4800    94.1310    19.0960 N.pl3        1 FAD399   0.0000
    40 C10        -34.7000    95.5230    18.7410 C.2          1 FAD399   0.0000
    41 C1'        -33.3860    93.7650    19.9790 C.3          1 FAD399   0.0000
    42 C2'        -33.7820    93.4720    21.4380 C.3          1 FAD399   0.0000
    43 O2'        -34.0320    94.6430    22.1890 O.3          1 FAD399   0.0000
    44 C3'        -32.6950    92.6180    22.0950 C.3          1 FAD399   0.0000
    45 O3'        -32.7120    91.4180    21.3190 O.3          1 FAD399   0.0000
    46 C4'        -32.9760    92.2810    23.5910 C.3          1 FAD399   0.0000
    47 O4'        -32.9240    93.4720    24.3500 O.3          1 FAD399   0.0000
    48 C5'        -31.9570    91.2960    24.1770 C.3          1 FAD399   0.0000
    49 O5'        -30.6480    91.7020    23.7980 O.3          1 FAD399   0.0000
    50 P          -29.7420    90.6640    23.0760 P.3          1 FAD399   0.0000
    51 O1P        -30.4470    89.9670    21.9840 O.co2        1 FAD399   0.0000
    52 O2P        -28.4350    91.2870    22.7660 O.co2        1 FAD399  -1.0000
    53 O3P        -29.4890    89.5710    24.1830 O.3          1 FAD399   0.0000
    54 H5B1       -27.8703    86.9917    26.4734 H            1 FAD399   0.0000
    55 H5B2       -29.3379    86.9080    25.7622 H            1 FAD399   0.0000
    56 H4B        -29.3572    85.6935    27.8002 H            1 FAD399   0.0000
    57 H3B        -31.3391    87.3823    27.1723 H            1 FAD399   0.0000
    58 H5         -31.2011    85.8782    29.5680 H            1 FAD399   0.0000
    59 H2B        -30.6070    89.1273    28.5299 H            1 FAD399   0.0000
    60 H7         -32.5754    87.6879    29.6611 H            1 FAD399   0.0000
    61 H1B        -29.8403    87.2540    30.5803 H            1 FAD399   0.0000
    62 H8A        -28.2005    90.2191    28.8793 H            1 FAD399   0.0000
    63 H6A1       -27.4527    92.5508    34.5025 H            1 FAD399   0.0000
    64 H6A2       -27.1516    92.8264    32.8192 H            1 FAD399   0.0000
    65 H2A        -29.5380    88.7109    34.8232 H            1 FAD399   0.0000
    66 H13        -35.3096    99.0484    17.7496 H            1 FAD399   0.0000
    67 H14        -37.9876    92.8417    16.5194 H            1 FAD399   0.0000
    68 H7M1       -37.8342    89.2873    16.9207 H            1 FAD399   0.0000
    69 H7M2       -39.0010    90.4294    16.9474 H            1 FAD399   0.0000
    70 H7M3       -37.9910    90.3238    15.6687 H            1 FAD399   0.0000
    71 H8M1       -35.0340    89.1584    19.1193 H            1 FAD399   0.0000
    72 H8M2       -36.6312    88.8793    18.9253 H            1 FAD399   0.0000
    73 H8M3       -35.6239    88.7832    17.6436 H            1 FAD399   0.0000
    74 H21        -34.4708    91.3579    19.3958 H            1 FAD399   0.0000
    75 H1'1       -32.7284    94.5183    19.9835 H            1 FAD399   0.0000
    76 H1'2       -32.9510    92.9450    19.6071 H            1 FAD399   0.0000
    77 H2'        -34.6247    92.9339    21.4229 H            1 FAD399   0.0000
    78 H25        -33.8038    94.4786    23.1486 H            1 FAD399   0.0000
    79 H3'        -31.8068    93.0689    22.0074 H            1 FAD399   0.0000
    80 H27        -32.0258    90.7825    21.6729 H            1 FAD399   0.0000
    81 H4'        -33.8914    91.8860    23.6686 H            1 FAD399   0.0000
    82 H29        -32.0170    93.8839    24.2623 H            1 FAD399   0.0000
    83 H5'1       -32.1380    90.3777    23.8250 H            1 FAD399   0.0000
    84 H5'2       -32.0308    91.2913    25.1743 H            1 FAD399   0.0000
@<TRIPOS>BOND
     1    1    2      ar
     2    1    3      ar
     3    1    4       1
     4    1   53       1
     5    4    5       1
     6    5    6       1
     7    6    7       1
     8    6    8       1
     9    7   12       1
    10    8    9       1
    11    8   10       1
    12   10   11       1
    13   10   12       1
    14   12   13       1
    15   13   14       1
    16   13   22       1
    17   14   15       2
    18   15   16       1
    19   16   17      ar
    20   16   22      ar
    21   17   18       1
    22   17   19      ar
    23   19   20      ar
    24   20   21      ar
    25   21   22      ar
    26   23   24       1
    27   23   40       2
    28   24   25       2
    29   24   26       1
    30   26   27       1
    31   27   28       2
    32   27   29       1
    33   29   30       2
    34   29   40       1
    35   30   31       1
    36   31   32      ar
    37   31   38      ar
    38   32   33      ar
    39   33   34       1
    40   33   35      ar
    41   35   36       1
    42   35   37      ar
    43   37   38      ar
    44   38   39       1
    45   39   40       1
    46   39   41       1
    47   41   42       1
    48   42   43       1
    49   42   44       1
    50   44   45       1
    51   44   46       1
    52   46   47       1
    53   46   48       1
    54   48   49       1
    55   49   50       1
    56   50   51      ar
    57   50   52      ar
    58   50   53       1
    59   48   84       1
    60    5   54       1
    61    5   55       1
    62    6   56       1
    63    8   57       1
    64    9   58       1
    65   10   59       1
    66   11   60       1
    67   12   61       1
    68   14   62       1
    69   18   63       1
    70   18   64       1
    71   20   65       1
    72   26   66       1
    73   32   67       1
    74   34   68       1
    75   34   69       1
    76   34   70       1
    77   36   71       1
    78   36   72       1
    79   36   73       1
    80   37   74       1
    81   41   75       1
    82   41   76       1
    83   42   77       1
    84   43   78       1
    85   44   79       1
    86   45   80       1
    87   46   81       1
    88   47   82       1
    89   48   83       1
@<TRIPOS>SUBSTRUCTURE
     1 FAD399      1 GROUP             4 A     FAD     0 **** FAD A 399
