@<TRIPOS>MOLECULE
2oz6_CMP_2_ligand
   34    37     1     0     0
SMALL
NO_CHARGES


@<TRIPOS>ATOM
     1 P          -26.9660    42.9150    -4.4830 P.3          1 CMP301   0.0000
     2 O1P        -28.0270    43.4810    -3.5800 O.3          1 CMP301   0.0000
     3 O2P        -26.9360    43.7410    -5.7380 O.2          1 CMP301   0.0000
     4 O5'        -25.6410    42.9580    -3.7220 O.3          1 CMP301   0.0000
     5 C5'        -25.4910    42.1820    -2.5020 C.3          1 CMP301   0.0000
     6 C4'        -25.5390    40.7620    -3.0770 C.3          1 CMP301   0.0000
     7 O4'        -25.4350    39.7130    -2.1000 O.3          1 CMP301   0.0000
     8 C3'        -26.8930    40.5500    -3.7760 C.3          1 CMP301   0.0000
     9 O3'        -27.0930    41.4410    -4.8680 O.3          1 CMP301   0.0000
    10 C2'        -26.9340    39.0420    -3.8400 C.3          1 CMP301   0.0000
    11 O2'        -26.1120    38.4750    -4.8090 O.3          1 CMP301   0.0000
    12 C1'        -26.6090    38.9110    -2.2890 C.3          1 CMP301   0.0000
    13 N9         -27.5780    38.1280    -1.3830 N.pl3        1 CMP301   0.0000
    14 C8         -28.4390    38.9730    -0.6360 C.2          1 CMP301   0.0000
    15 N7         -29.2920    38.3840     0.1410 N.2          1 CMP301   0.0000
    16 C5         -28.9810    37.0540    -0.0860 C.ar         1 CMP301   0.0000
    17 C6         -29.4860    35.8220     0.4030 C.ar         1 CMP301   0.0000
    18 N6         -30.4720    35.7470     1.2870 N.pl3        1 CMP301   0.0000
    19 N1         -28.8810    34.6750    -0.1010 N.ar         1 CMP301   0.0000
    20 C2         -27.8670    34.6050    -1.0040 C.ar         1 CMP301   0.0000
    21 N3         -27.3380    35.7500    -1.5090 N.ar         1 CMP301   0.0000
    22 C4         -27.9600    36.8500    -0.9880 C.ar         1 CMP301   0.0000
    23 H1P        -28.7514    43.8919    -4.1336 H            1 CMP301   0.0000
    24 H5'1       -26.2416    42.3483    -1.8625 H            1 CMP301   0.0000
    25 H5'2       -24.6194    42.3689    -2.0488 H            1 CMP301   0.0000
    26 H4'        -24.8052    40.6567    -3.7482 H            1 CMP301   0.0000
    27 H3'        -27.5827    40.8043    -3.0981 H            1 CMP301   0.0000
    28 H2'        -27.8764    38.7488    -4.0008 H            1 CMP301   0.0000
    29 H7         -26.6199    38.3848    -5.6657 H            1 CMP301   0.0000
    30 H1'        -26.0559    38.0931    -2.4478 H            1 CMP301   0.0000
    31 H9         -28.3900    39.9694    -0.7056 H            1 CMP301   0.0000
    32 H10        -30.7941    34.8543     1.6022 H            1 CMP301   0.0000
    33 H11        -30.8932    36.5831     1.6383 H            1 CMP301   0.0000
    34 H12        -27.5127    33.7162    -1.2947 H            1 CMP301   0.0000
@<TRIPOS>BOND
     1    1    2       1
     2    1    3       2
     3    1    4       1
     4    1    9       1
     5    4    5       1
     6    5    6       1
     7    6    7       1
     8    6    8       1
     9    7   12       1
    10    8    9       1
    11    8   10       1
    12   10   11       1
    13   10   12       1
    14   12   13       1
    15   13   14       1
    16   13   22       1
    17   14   15       2
    18   15   16       1
    19   16   17      ar
    20   16   22      ar
    21   17   18       1
    22   17   19      ar
    23   19   20      ar
    24   20   21      ar
    25   21   22      ar
    26    2   23       1
    27    5   24       1
    28    5   25       1
    29    6   26       1
    30    8   27       1
    31   10   28       1
    32   11   29       1
    33   12   30       1
    34   14   31       1
    35   18   32       1
    36   18   33       1
    37   20   34       1
@<TRIPOS>SUBSTRUCTURE
     1 CMP301      1 GROUP             4 A     CMP     0 **** CMP A 301
