@<TRIPOS>MOLECULE
2yhy_ADP_1_ligand
   39    41     1     0     0
SMALL
NO_CHARGES


@<TRIPOS>ATOM
     1 PB          -4.7880    36.9250    20.5000 P.3          1 ADP1727   0.0000
     2 O1B         -4.1940    35.5550    20.8530 O.co2        1 ADP1727   0.0000
     3 O2B         -4.0520    37.7600    19.4450 O.co2        1 ADP1727  -1.0000
     4 O3B         -6.2640    36.7270    20.3120 O.co2        1 ADP1727  -1.0000
     5 PA          -4.0670    38.3940    22.8920 P.3          1 ADP1727   0.0000
     6 O1A         -4.0910    37.3500    24.0010 O.co2        1 ADP1727   0.0000
     7 O2A         -2.8000    39.1490    22.4960 O.co2        1 ADP1727  -1.0000
     8 O3A         -5.0000    37.9190    21.7210 O.3          1 ADP1727   0.0000
     9 O5'         -5.1690    39.5270    23.3450 O.3          1 ADP1727   0.0000
    10 C5'         -5.7840    40.5160    22.4870 C.3          1 ADP1727   0.0000
    11 C4'         -7.2790    40.5880    22.8160 C.3          1 ADP1727   0.0000
    12 O4'         -7.3600    40.5290    24.2250 O.3          1 ADP1727   0.0000
    13 C3'         -8.0850    41.8350    22.4390 C.3          1 ADP1727   0.0000
    14 O3'         -9.4790    41.5370    22.5490 O.3          1 ADP1727   0.0000
    15 C2'         -7.8010    42.8370    23.5380 C.3          1 ADP1727   0.0000
    16 O2'         -8.8510    43.7620    23.8780 O.3          1 ADP1727   0.0000
    17 C1'         -7.6530    41.8470    24.6830 C.3          1 ADP1727   0.0000
    18 N9          -6.5520    42.2860    25.5250 N.pl3        1 ADP1727   0.0000
    19 C8          -5.3460    42.7860    25.1800 C.2          1 ADP1727   0.0000
    20 N7          -4.6450    43.0490    26.3110 N.2          1 ADP1727   0.0000
    21 C5          -5.4200    42.7120    27.3630 C.ar         1 ADP1727   0.0000
    22 C6          -5.3180    42.7250    28.8350 C.ar         1 ADP1727   0.0000
    23 N6          -4.1990    43.1810    29.4460 N.pl3        1 ADP1727   0.0000
    24 N1          -6.3940    42.2650    29.5410 N.ar         1 ADP1727   0.0000
    25 C2          -7.5390    41.8140    28.9590 C.ar         1 ADP1727   0.0000
    26 N3          -7.6970    41.7840    27.6250 N.ar         1 ADP1727   0.0000
    27 C4          -6.6860    42.2100    26.8250 C.ar         1 ADP1727   0.0000
    28 H5'1        -5.6621    40.2539    21.5297 H            1 ADP1727   0.0000
    29 H5'2        -5.3611    41.4084    22.6447 H            1 ADP1727   0.0000
    30 H4'         -7.7324    39.7832    22.4331 H            1 ADP1727   0.0000
    31 H3'         -7.8419    42.1849    21.5343 H            1 ADP1727   0.0000
    32 H5          -9.8988    42.1489    23.2193 H            1 ADP1727   0.0000
    33 H2'         -6.9412    43.3188    23.3688 H            1 ADP1727   0.0000
    34 H7          -8.7649    44.5850    23.3165 H            1 ADP1727   0.0000
    35 H1'         -8.4963    41.8321    25.2202 H            1 ADP1727   0.0000
    36 H9          -5.0233    42.9373    24.2457 H            1 ADP1727   0.0000
    37 H10         -4.1408    43.1852    30.4443 H            1 ADP1727   0.0000
    38 H11         -3.4308    43.5135    28.8989 H            1 ADP1727   0.0000
    39 H12         -8.2859    41.4951    29.5425 H            1 ADP1727   0.0000
@<TRIPOS>BOND
     1    1    2      ar
     2    1    3      ar
     3    1    4      ar
     4    1    8       1
     5    5    6      ar
     6    5    7      ar
     7    5    8       1
     8    5    9       1
     9    9   10       1
    10   10   11       1
    11   11   12       1
    12   11   13       1
    13   12   17       1
    14   13   14       1
    15   13   15       1
    16   15   16       1
    17   15   17       1
    18   17   18       1
    19   18   19       1
    20   18   27       1
    21   19   20       2
    22   20   21       1
    23   21   22      ar
    24   21   27      ar
    25   22   23       1
    26   22   24      ar
    27   24   25      ar
    28   25   26      ar
    29   26   27      ar
    30   25   39       1
    31   23   38       1
    32   23   37       1
    33   10   28       1
    34   10   29       1
    35   11   30       1
    36   13   31       1
    37   14   32       1
    38   15   33       1
    39   16   34       1
    40   17   35       1
    41   19   36       1
@<TRIPOS>SUBSTRUCTURE
     1 ADP1727     1 GROUP             4 A     ADP     0 **** ADP A1727
