@<TRIPOS>MOLECULE
1lqy_BB2_1_ligand
   59    59     1     0     0
SMALL
NO_CHARGES


@<TRIPOS>ATOM
     1 C5          16.3200     6.4370    28.9550 C.3          1 BB2401   0.0000
     2 C3          16.5440     7.5990    29.9660 C.2          1 BB2401   0.0000
     3 O4          17.6730     8.0620    30.1680 O.2          1 BB2401   0.0000
     4 N1          15.4870     8.0860    30.6150 N.am         1 BB2401   0.0000
     5 O2          15.6770     9.1420    31.5370 O.3          1 BB2401  -1.0000
     6 C6          16.5510     5.1390    29.7410 C.3          1 BB2401   0.0000
     7 C12         16.7870     3.9850    28.7280 C.2          1 BB2401   0.0000
     8 O13         15.9580     3.7640    27.8080 O.2          1 BB2401   0.0000
     9 C7          15.2840     4.8610    30.6160 C.3          1 BB2401   0.0000
    10 C8          15.2140     3.4590    31.2900 C.3          1 BB2401   0.0000
    11 C9          16.3000     3.2870    32.3360 C.3          1 BB2401   0.0000
    12 C10         15.9540     2.0920    33.2640 C.3          1 BB2401   0.0000
    13 C11         16.2330     0.7010    32.6660 C.3          1 BB2401   0.0000
    14 N14         17.9580     3.2620    29.0140 N.am         1 BB2401   0.0000
    15 C15         18.2150     2.1760    28.1320 C.3          1 BB2401   0.0000
    16 C16         19.5620     2.3790    27.3670 C.3          1 BB2401   0.0000
    17 C18         19.9460     1.1300    26.5310 C.3          1 BB2401   0.0000
    18 C17         19.4710     3.6090    26.4500 C.3          1 BB2401   0.0000
    19 C19         18.3440     0.9140    29.0290 C.2          1 BB2401   0.0000
    20 O20         19.0490     1.0260    30.0560 O.2          1 BB2401   0.0000
    21 N21         17.8460    -0.3070    28.6190 N.am         1 BB2401   0.0000
    22 C22         17.7700    -1.4200    29.6120 C.3          1 BB2401   0.0000
    23 C23         16.5620    -0.2400    27.9050 C.3          1 BB2401   0.0000
    24 C24         16.0290    -1.6880    27.9860 C.3          1 BB2401   0.0000
    25 C25         16.3880    -2.0650    29.4230 C.3          1 BB2401   0.0000
    26 C26         18.9800    -2.2850    29.2400 C.2          1 BB2401   0.0000
    27 O27         19.3870    -3.0730    30.0670 O.2          1 BB2401   0.0000
    28 H1          16.9703     6.5050    28.1984 H            1 BB2401   0.0000
    29 H2          15.3870     6.4641    28.5961 H            1 BB2401   0.0000
    30 H3          14.5742     7.7111    30.4529 H            1 BB2401   0.0000
    31 H4          17.3525     5.2397    30.3304 H            1 BB2401   0.0000
    32 H5          14.4798     4.9591    30.0298 H            1 BB2401   0.0000
    33 H6          15.2549     5.5503    31.3399 H            1 BB2401   0.0000
    34 H7          15.3253     2.7556    30.5880 H            1 BB2401   0.0000
    35 H8          14.3215     3.3540    31.7286 H            1 BB2401   0.0000
    36 H9          16.3697     4.1218    32.8822 H            1 BB2401   0.0000
    37 H10         17.1735     3.1121    31.8816 H            1 BB2401   0.0000
    38 H11         14.9806     2.1442    33.4869 H            1 BB2401   0.0000
    39 H12         16.4930     2.1834    34.1013 H            1 BB2401   0.0000
    40 H13         15.9817    -0.0036    33.3296 H            1 BB2401   0.0000
    41 H14         15.6930     0.5820    31.8328 H            1 BB2401   0.0000
    42 H15         17.2055     0.6212    32.4472 H            1 BB2401   0.0000
    43 H16         18.5622     3.4927    29.7767 H            1 BB2401   0.0000
    44 H17         17.4604     2.0673    27.4849 H            1 BB2401   0.0000
    45 H18         20.2841     2.5411    28.0396 H            1 BB2401   0.0000
    46 H19         20.8108     1.2985    26.0579 H            1 BB2401   0.0000
    47 H20         20.0459     0.3410    27.1372 H            1 BB2401   0.0000
    48 H21         19.2289     0.9454    25.8590 H            1 BB2401   0.0000
    49 H22         20.3379     3.7289    25.9661 H            1 BB2401   0.0000
    50 H23         18.7345     3.4765    25.7867 H            1 BB2401   0.0000
    51 H24         19.2814     4.4220    27.0006 H            1 BB2401   0.0000
    52 H25         17.8662    -1.0658    30.5422 H            1 BB2401   0.0000
    53 H26         16.6958     0.0391    26.9541 H            1 BB2401   0.0000
    54 H27         15.9358     0.3971    28.3544 H            1 BB2401   0.0000
    55 H28         16.4878    -2.2836    27.3266 H            1 BB2401   0.0000
    56 H29         15.0410    -1.7225    27.8352 H            1 BB2401   0.0000
    57 H30         15.7243    -1.6896    30.0700 H            1 BB2401   0.0000
    58 H31         16.4362    -3.0577    29.5332 H            1 BB2401   0.0000
    59 H32         19.4189    -2.2021    28.3453 H            1 BB2401   0.0000
@<TRIPOS>BOND
     1    1    2       1
     2    1    6       1
     3    2    3       2
     4    2    4      am
     5    4    5       1
     6    6    7       1
     7    6    9       1
     8    7    8       2
     9    7   14      am
    10    9   10       1
    11   10   11       1
    12   11   12       1
    13   12   13       1
    14   14   15       1
    15   15   16       1
    16   15   19       1
    17   16   17       1
    18   16   18       1
    19   19   20       2
    20   19   21      am
    21   21   22       1
    22   21   23       1
    23   22   25       1
    24   22   26       1
    25   23   24       1
    26   24   25       1
    27   26   27       2
    28    1   28       1
    29    1   29       1
    30    4   30       1
    31   26   59       1
    32    6   31       1
    33    9   32       1
    34    9   33       1
    35   10   34       1
    36   10   35       1
    37   11   36       1
    38   11   37       1
    39   12   38       1
    40   12   39       1
    41   13   40       1
    42   13   41       1
    43   13   42       1
    44   14   43       1
    45   15   44       1
    46   16   45       1
    47   17   46       1
    48   17   47       1
    49   17   48       1
    50   18   49       1
    51   18   50       1
    52   18   51       1
    53   22   52       1
    54   23   53       1
    55   23   54       1
    56   24   55       1
    57   24   56       1
    58   25   57       1
    59   25   58       1
@<TRIPOS>SUBSTRUCTURE
     1 BB2401      1 GROUP             4 A     BB2     0 **** BB2 A 401
