@<TRIPOS>MOLECULE
./coach420/148l/ligand.pdb
 32 33 0 0 0
SMALL
GASTEIGER

@<TRIPOS>ATOM
      1  C1         6.4990   50.9880   35.7820 C.3   164  NAG164      0.2586
      2  C2         4.9700   50.8500   35.6800 C.3   164  NAG164      0.1842
      3  C3         4.4710   50.9230   34.2470 C.3   164  NAG164      0.2094
      4  C4         5.0200   52.2210   33.6740 C.3   164  NAG164      0.2136
      5  C5         6.5440   52.1130   33.7690 C.3   164  NAG164      0.1834
      6  C6         7.3990   53.1520   33.0740 C.3   164  NAG164      0.2142
      7  C7         3.7530   49.6000   37.3760 C.2   164  NAG164      0.2420
      8  C8         3.3620   48.2340   37.8100 C.3   164  NAG164      0.0964
      9  N2         4.5350   49.6350   36.3150 N.am  164  NAG164     -0.1992
     10  O3         3.0520   51.0240   34.3070 O.3   164  NAG164     -0.2183
     11  O4         4.6040   52.3460   32.3310 O.3   164  NAG164     -0.2176
     12  O5         6.8970   52.1720   35.1370 O.3   164  NAG164     -0.3262
     13  O6         6.6480   54.3400   33.1080 O.3   164  NAG164     -0.2176
     14  O7         3.3610   50.6140   37.9260 O.2   164  NAG164     -0.2733
     15  C1         9.7490   50.4490   39.5690 C.3   165  MUB165      0.1664
     16  C2        10.1900   51.2960   38.3660 C.3   165  MUB165      0.1543
     17  C3         8.8480   51.7630   37.7890 C.3   165  MUB165      0.1675
     18  C4         8.1050   50.5330   37.3440 C.3   165  MUB165      0.1761
     19  C5         7.6920   49.7000   38.5630 C.3   165  MUB165      0.1776
     20  C6         7.0630   48.4120   38.0770 C.3   165  MUB165      0.2140
     21  C7        12.6050   51.4590   38.1710 C.2   165  MUB165      0.2420
     22  C8        13.7480   52.3740   38.2500 C.3   165  MUB165      0.0964
     23  C9        10.1310   53.3990   36.4930 C.3   165  MUB165      0.1795
     24  C10       11.2420   53.4660   35.5140 C.2   165  MUB165      0.2366
     25  C11        9.0400   54.4430   36.2330 C.3   165  MUB165      0.0406
     26  O3         9.4980   52.1230   36.5570 O.3   165  MUB165     -0.3464
     27  O4         6.8270   51.2060   37.1190 O.3   165  MUB165     -0.3265
     28  O5         8.6870   49.5030   39.6120 O.3   165  MUB165     -0.3491
     29  O6         8.3300   47.8930   37.7240 O.3   165  MUB165     -0.2176
     30  O7        12.6840   50.3000   37.6440 O.2   165  MUB165     -0.2733
     31  O10       11.8320   54.5570   35.4140 O.2   165  MUB165     -0.2856
     32  N2        11.4810   51.7700   38.8080 N.am  165  MUB165     -0.2020
@<TRIPOS>BOND
     1     1    12    1
     2     1     2    1
     3     1    27    1
     4     2     3    1
     5     2     9    1
     6     3     4    1
     7     3    10    1
     8     4    11    1
     9     4     5    1
    10     5     6    1
    11     5    12    1
    12     6    13    1
    13     7     9   am
    14     7     8    1
    15     7    14    2
    16    15    16    1
    17    15    28    1
    18    16    17    1
    19    16    32    1
    20    17    26    1
    21    17    18    1
    22    18    27    1
    23    18    19    1
    24    19    20    1
    25    19    28    1
    26    20    29    1
    27    21    30    2
    28    21    22    1
    29    21    32   am
    30    23    24    1
    31    23    25    1
    32    23    26    1
    33    24    31    2
