@<TRIPOS>MOLECULE
4bmv_NAP_2_ligand
   73    77     1     0     0
SMALL
NO_CHARGES


@<TRIPOS>ATOM
     1 PA           2.0010    15.1190    87.1020 P.3          1 NAP300   0.0000
     2 O1A          1.2640    16.3510    87.3840 O.co2        1 NAP300   0.0000
     3 O2A          1.3910    14.0280    86.2290 O.co2        1 NAP300  -1.0000
     4 O5B          3.3350    15.6060    86.4090 O.3          1 NAP300   0.0000
     5 C5B          4.1120    14.6580    85.7170 C.3          1 NAP300   0.0000
     6 C4B          5.0750    15.4720    84.9080 C.3          1 NAP300   0.0000
     7 O4B          6.0190    14.5570    84.3170 O.3          1 NAP300   0.0000
     8 C3B          4.2980    16.1690    83.8530 C.3          1 NAP300   0.0000
     9 O3B          4.9120    17.3960    83.4850 O.3          1 NAP300   0.0000
    10 C2B          4.4040    15.2420    82.6760 C.3          1 NAP300   0.0000
    11 O2B          4.1400    15.9750    81.4710 O.3          1 NAP300   0.0000
    12 C1B          5.8230    14.5790    82.8850 C.3          1 NAP300   0.0000
    13 N9A          5.8550    13.2710    82.1600 N.pl3        1 NAP300   0.0000
    14 C8A          4.9910    12.2380    82.1350 C.2          1 NAP300   0.0000
    15 N7A          5.3760    11.3020    81.2330 N.2          1 NAP300   0.0000
    16 C5A          6.4820    11.7700    80.6380 C.ar         1 NAP300   0.0000
    17 C6A          7.4550    11.3590    79.6260 C.ar         1 NAP300   0.0000
    18 N6A          7.3080    10.1800    78.9630 N.pl3        1 NAP300   0.0000
    19 N1A          8.5060    12.1630    79.3280 N.ar         1 NAP300   0.0000
    20 C2A          8.7180    13.3020    79.8980 C.ar         1 NAP300   0.0000
    21 N3A          7.8900    13.7220    80.8500 N.ar         1 NAP300   0.0000
    22 C4A          6.7730    13.0450    81.2390 C.ar         1 NAP300   0.0000
    23 O3           2.2680    14.3000    88.4900 O.3          1 NAP300   0.0000
    24 PN           3.2180    14.6950    89.6780 P.3          1 NAP300   0.0000
    25 O1N          2.7110    14.2040    91.0250 O.co2        1 NAP300   0.0000
    26 O2N          3.6860    16.0920    89.5670 O.co2        1 NAP300  -1.0000
    27 O5D          4.4990    13.8260    89.3270 O.3          1 NAP300   0.0000
    28 C5D          5.8300    14.2800    89.5630 C.3          1 NAP300   0.0000
    29 C4D          6.6290    13.3090    90.4350 C.3          1 NAP300   0.0000
    30 O4D          6.1470    13.2770    91.7630 O.3          1 NAP300   0.0000
    31 C3D          6.6180    11.8930    89.8860 C.3          1 NAP300   0.0000
    32 O3D          7.9640    11.4360    89.7930 O.3          1 NAP300   0.0000
    33 C2D          5.8040    11.1500    90.9040 C.3          1 NAP300   0.0000
    34 O2D          6.1160     9.7440    90.9720 O.3          1 NAP300   0.0000
    35 C1D          6.1530    11.9200    92.1670 C.3          1 NAP300   0.0000
    36 N1N          5.2120    11.7720    93.3080 N.ar         1 NAP300   1.0000
    37 C2N          3.9780    12.2380    93.2110 C.ar         1 NAP300   0.0000
    38 C3N          3.1380    12.1460    94.2840 C.ar         1 NAP300   0.0000
    39 C7N          1.7650    12.6490    94.1240 C.2          1 NAP300   0.0000
    40 O7N          0.9147    12.2810    94.9114 O.2          1 NAP300   0.0000
    41 N7N          1.5167    13.4527    93.1443 N.am         1 NAP300   0.0000
    42 C4N          3.5720    11.5940    95.4760 C.ar         1 NAP300   0.0000
    43 C5N          4.8750    11.1270    95.5890 C.ar         1 NAP300   0.0000
    44 C6N          5.6830    11.2760    94.4680 C.ar         1 NAP300   0.0000
    45 P2B          3.7780    15.3420    80.0540 P.3          1 NAP300   0.0000
    46 O1X          3.2970    16.5840    79.2790 O.co2        1 NAP300   0.0000
    47 O2X          4.9420    14.5990    79.4250 O.co2        1 NAP300  -1.0000
    48 O3X          2.7760    14.2740    80.3510 O.co2        1 NAP300  -1.0000
    49 H5B1         3.5365    14.0978    85.1212 H            1 NAP300   0.0000
    50 H5B2         4.6016    14.0676    86.3586 H            1 NAP300   0.0000
    51 H4B          5.5474    16.1344    85.4895 H            1 NAP300   0.0000
    52 H3B          3.3461    16.3040    84.1282 H            1 NAP300   0.0000
    53 H5           4.3672    17.8414    82.7745 H            1 NAP300   0.0000
    54 H2B          3.7072    14.5311    82.7713 H            1 NAP300   0.0000
    55 H1B          6.5136    15.1795    82.4818 H            1 NAP300   0.0000
    56 H8A          4.1732    12.1704    82.7065 H            1 NAP300   0.0000
    57 H6A1         7.9784     9.9075    78.2728 H            1 NAP300   0.0000
    58 H6A2         6.5296     9.5859    79.1659 H            1 NAP300   0.0000
    59 H2A          9.4990    13.8640    79.6256 H            1 NAP300   0.0000
    60 H5D1         5.7904    15.1671    90.0229 H            1 NAP300   0.0000
    61 H5D2         6.2960    14.3808    88.6840 H            1 NAP300   0.0000
    62 H4D          7.5778    13.6239    90.4583 H            1 NAP300   0.0000
    63 H3D          6.1735    11.8653    88.9906 H            1 NAP300   0.0000
    64 H16          8.5694    12.2141    89.6257 H            1 NAP300   0.0000
    65 H2D          4.8316    11.2658    90.7015 H            1 NAP300   0.0000
    66 H18          5.9431     9.3208    90.0826 H            1 NAP300   0.0000
    67 H1D          7.0741    11.6678    92.4637 H            1 NAP300   0.0000
    68 H2N          3.6624    12.6546    92.3584 H            1 NAP300   0.0000
    69 H7N1         0.5878    13.7940    93.0007 H            1 NAP300   0.0000
    70 H7N2         2.2533    13.7338    92.5292 H            1 NAP300   0.0000
    71 H4N          2.9483    11.5314    96.2552 H            1 NAP300   0.0000
    72 H5N          5.2134    10.7065    96.4309 H            1 NAP300   0.0000
    73 H6N          6.6443    11.0064    94.5246 H            1 NAP300   0.0000
@<TRIPOS>BOND
     1    1    2      ar
     2    1    3      ar
     3    1    4       1
     4    1   23       1
     5    4    5       1
     6    5    6       1
     7    6    7       1
     8    6    8       1
     9    7   12       1
    10    8    9       1
    11    8   10       1
    12   10   11       1
    13   10   12       1
    14   11   45       1
    15   12   13       1
    16   13   14       1
    17   13   22       1
    18   14   15       2
    19   15   16       1
    20   16   17      ar
    21   16   22      ar
    22   17   18       1
    23   17   19      ar
    24   19   20      ar
    25   20   21      ar
    26   21   22      ar
    27   23   24       1
    28   24   25      ar
    29   24   26      ar
    30   24   27       1
    31   27   28       1
    32   28   29       1
    33   29   30       1
    34   29   31       1
    35   30   35       1
    36   31   32       1
    37   31   33       1
    38   33   34       1
    39   33   35       1
    40   35   36       1
    41   36   37      ar
    42   36   44      ar
    43   37   38      ar
    44   38   39       1
    45   38   42      ar
    46   39   40       2
    47   39   41      am
    48   42   43      ar
    49   43   44      ar
    50   45   46      ar
    51   45   47      ar
    52   45   48      ar
    53   43   72       1
    54    5   49       1
    55    5   50       1
    56    6   51       1
    57    8   52       1
    58    9   53       1
    59   10   54       1
    60   12   55       1
    61   14   56       1
    62   18   57       1
    63   18   58       1
    64   20   59       1
    65   44   73       1
    66   28   60       1
    67   28   61       1
    68   29   62       1
    69   31   63       1
    70   32   64       1
    71   33   65       1
    72   34   66       1
    73   35   67       1
    74   37   68       1
    75   41   69       1
    76   41   70       1
    77   42   71       1
@<TRIPOS>SUBSTRUCTURE
     1 NAP300      1 GROUP             4 B     NAP     0 **** NAP B 300
