@<TRIPOS>MOLECULE
4i3p_1CW_1_ligand
   17    17     1     0     0
SMALL
NO_CHARGES


@<TRIPOS>ATOM
     1 O           -6.9840   -26.5470     4.7390 O.co2        1 1CW203   0.0000
     2 C5          -7.2440   -25.9220     5.9370 C.2          1 1CW203   0.0000
     3 O1          -6.1750   -25.5280     6.6950 O.co2        1 1CW203  -1.0000
     4 C4          -8.5510   -25.2130     6.1540 C.ar         1 1CW203   0.0000
     5 C3          -9.2100   -25.3780     7.3610 C.ar         1 1CW203   0.0000
     6 C2         -10.4150   -24.7280     7.5980 C.ar         1 1CW203   0.0000
     7 C1         -10.9950   -23.9140     6.6360 C.ar         1 1CW203   0.0000
     8 C6          -9.1260   -24.3780     5.1850 C.ar         1 1CW203   0.0000
     9 O2          -8.5260   -24.1790     3.9550 O.3          1 1CW203   0.0000
    10 C          -10.3350   -23.7310     5.4230 C.ar         1 1CW203   0.0000
    11 N          -10.8400   -22.9370     4.4470 N.pl3        1 1CW203   0.0000
    12 H1          -8.8164   -25.9682     8.0658 H            1 1CW203   0.0000
    13 H2         -10.8728   -24.8493     8.4787 H            1 1CW203   0.0000
    14 H3         -11.8720   -23.4662     6.8104 H            1 1CW203   0.0000
    15 H4          -7.6625   -24.6354     3.7402 H            1 1CW203   0.0000
    16 H5         -10.3431   -22.8251     3.5864 H            1 1CW203   0.0000
    17 H6         -11.7094   -22.4633     4.5877 H            1 1CW203   0.0000
@<TRIPOS>BOND
     1    1    2      ar
     2    2    3      ar
     3    2    4       1
     4    4    5      ar
     5    4    8      ar
     6    5    6      ar
     7    6    7      ar
     8    7   10      ar
     9    8    9       1
    10    8   10      ar
    11   10   11       1
    12   11   17       1
    13    5   12       1
    14    6   13       1
    15    7   14       1
    16    9   15       1
    17   11   16       1
@<TRIPOS>SUBSTRUCTURE
     1 1CW203      1 GROUP             4 A     1CW     0 **** 1CW A 203
