@<TRIPOS>MOLECULE
3qdl_FMN_4_ligand
   50    52     1     0     0
SMALL
NO_CHARGES


@<TRIPOS>ATOM
     1 N1           6.4200     2.0970   -30.2990 N.2          1 FMN300   0.0000
     2 C2           5.5710     1.2870   -29.5700 C.2          1 FMN300   0.0000
     3 O2           4.3820     1.2450   -29.8530 O.2          1 FMN300   0.0000
     4 N3           6.0530     0.5230   -28.5250 N.pl3        1 FMN300   0.0000
     5 C4           7.3960     0.5660   -28.2000 C.2          1 FMN300   0.0000
     6 O4           7.8290    -0.1150   -27.2660 O.2          1 FMN300   0.0000
     7 C4A          8.2550     1.3840   -28.9260 C.2          1 FMN300   0.0000
     8 N5           9.5970     1.4290   -28.6000 N.2          1 FMN300   0.0000
     9 C5A         10.4660     2.2290   -29.3160 C.ar         1 FMN300   0.0000
    10 C6          11.8210     2.2560   -28.9770 C.ar         1 FMN300   0.0000
    11 C7          12.7060     3.0560   -29.6960 C.ar         1 FMN300   0.0000
    12 C7M         14.1610     3.0760   -29.3230 C.3          1 FMN300   0.0000
    13 C8          12.2250     3.8280   -30.7590 C.ar         1 FMN300   0.0000
    14 C8M         13.1310     4.7030   -31.5730 C.3          1 FMN300   0.0000
    15 C9          10.8800     3.7930   -31.0930 C.ar         1 FMN300   0.0000
    16 C9A          9.9860     3.0010   -30.3770 C.ar         1 FMN300   0.0000
    17 N10          8.6340     2.9720   -30.7100 N.pl3        1 FMN300   0.0000
    18 C10          7.7660     2.1590   -29.9840 C.2          1 FMN300   0.0000
    19 C1'          8.1040     3.8110   -31.8480 C.3          1 FMN300   0.0000
    20 C2'          8.1220     5.3020   -31.4600 C.3          1 FMN300   0.0000
    21 O2'          7.0640     5.6000   -30.5720 O.3          1 FMN300   0.0000
    22 C3'          8.0790     6.2130   -32.6920 C.3          1 FMN300   0.0000
    23 O3'          9.2370     5.9760   -33.4620 O.3          1 FMN300   0.0000
    24 C4'          8.0060     7.7140   -32.3990 C.3          1 FMN300   0.0000
    25 O4'          6.8610     8.0410   -31.6360 O.3          1 FMN300   0.0000
    26 C5'          7.9990     8.5200   -33.6970 C.3          1 FMN300   0.0000
    27 O5'          6.9310     8.1370   -34.5440 O.3          1 FMN300   0.0000
    28 P            7.2010     7.7050   -36.0770 P.3          1 FMN300   0.0000
    29 O1P          5.8950     7.2120   -36.6550 O.co2        1 FMN300   0.0000
    30 O2P          8.2340     6.6090   -36.1430 O.co2        1 FMN300  -1.0000
    31 O3P          7.7020     8.8840   -36.8700 O.co2        1 FMN300  -1.0000
    32 H1           5.4307    -0.0610   -28.0038 H            1 FMN300   0.0000
    33 H2          12.1563     1.6998   -28.2166 H            1 FMN300   0.0000
    34 H7M1        14.6531     3.6964   -29.9336 H            1 FMN300   0.0000
    35 H7M2        14.2588     3.3905   -28.3788 H            1 FMN300   0.0000
    36 H7M3        14.5397     2.1544   -29.4083 H            1 FMN300   0.0000
    37 H8M1        12.5982     5.1687   -32.2796 H            1 FMN300   0.0000
    38 H8M2        13.5613     5.3820   -30.9782 H            1 FMN300   0.0000
    39 H8M3        13.8376     4.1418   -32.0040 H            1 FMN300   0.0000
    40 H9          10.5473     4.3439   -31.8584 H            1 FMN300   0.0000
    41 H1'1         7.1654     3.5341   -32.0538 H            1 FMN300   0.0000
    42 H1'2         8.6770     3.6725   -32.6557 H            1 FMN300   0.0000
    43 H2'          8.9809     5.4806   -30.9800 H            1 FMN300   0.0000
    44 H13          6.2934     4.9894   -30.7548 H            1 FMN300   0.0000
    45 H3'          7.2813     5.9615   -33.2401 H            1 FMN300   0.0000
    46 H15          9.0351     6.1417   -34.4273 H            1 FMN300   0.0000
    47 H4'          8.8172     7.9713   -31.8739 H            1 FMN300   0.0000
    48 H17          6.6167     7.2663   -31.0527 H            1 FMN300   0.0000
    49 H5'1         8.8634     8.3696   -34.1768 H            1 FMN300   0.0000
    50 H5'2         7.9052     9.4906   -33.4755 H            1 FMN300   0.0000
@<TRIPOS>BOND
     1    1    2       1
     2    1   18       2
     3    2    3       2
     4    2    4       1
     5    4    5       1
     6    5    6       2
     7    5    7       1
     8    7    8       2
     9    7   18       1
    10    8    9       1
    11    9   10      ar
    12    9   16      ar
    13   10   11      ar
    14   11   12       1
    15   11   13      ar
    16   13   14       1
    17   13   15      ar
    18   15   16      ar
    19   16   17       1
    20   17   18       1
    21   17   19       1
    22   19   20       1
    23   20   21       1
    24   20   22       1
    25   22   23       1
    26   22   24       1
    27   24   25       1
    28   24   26       1
    29   26   27       1
    30   27   28       1
    31   28   29      ar
    32   28   30      ar
    33   28   31      ar
    34    4   32       1
    35   10   33       1
    36   12   34       1
    37   12   35       1
    38   12   36       1
    39   14   37       1
    40   14   38       1
    41   14   39       1
    42   15   40       1
    43   19   41       1
    44   19   42       1
    45   20   43       1
    46   21   44       1
    47   22   45       1
    48   23   46       1
    49   24   47       1
    50   25   48       1
    51   26   49       1
    52   26   50       1
@<TRIPOS>SUBSTRUCTURE
     1 FMN300      1 GROUP             4 D     FMN     0 **** FMN D 300
