@<TRIPOS>MOLECULE
3fal_REA_3_ligand
   49    49     1     0     0
SMALL
NO_CHARGES


@<TRIPOS>ATOM
     1 C1          83.9310    59.5170    14.1260 C.3          1 REA501   0.0000
     2 C2          84.9700    60.4970    14.6050 C.3          1 REA501   0.0000
     3 C3          85.2130    61.4710    13.4810 C.3          1 REA501   0.0000
     4 C4          85.9720    60.7540    12.3930 C.3          1 REA501   0.0000
     5 C5          85.2260    59.5370    11.9980 C.2          1 REA501   0.0000
     6 C6          84.2970    58.9830    12.7830 C.2          1 REA501   0.0000
     7 C7          83.5930    57.8070    12.3650 C.2          1 REA501   0.0000
     8 C8          82.9100    57.7240    11.2180 C.2          1 REA501   0.0000
     9 C9          82.2380    56.5070    10.8880 C.2          1 REA501   0.0000
    10 C10         81.4100    56.3890     9.8470 C.2          1 REA501   0.0000
    11 C11         81.0950    57.4390     8.9140 C.2          1 REA501   0.0000
    12 C12         80.2960    57.1960     7.8700 C.2          1 REA501   0.0000
    13 C13         79.9400    58.1610     6.8650 C.2          1 REA501   0.0000
    14 C14         79.3300    57.7550     5.7460 C.2          1 REA501   0.0000
    15 C15         79.0100    58.8200     4.7180 C.2          1 REA501   0.0000
    16 C16         82.6040    60.2320    14.0720 C.3          1 REA501   0.0000
    17 C17         83.8330    58.3690    15.0960 C.3          1 REA501   0.0000
    18 C18         85.5560    58.9680    10.6680 C.3          1 REA501   0.0000
    19 C19         82.5080    55.3670    11.8020 C.3          1 REA501   0.0000
    20 C20         80.3060    59.5720     7.1340 C.3          1 REA501   0.0000
    21 O1          78.9530    58.3800     3.5340 O.co2        1 REA501   0.0000
    22 O2          78.8490    60.0000     5.1260 O.co2        1 REA501  -1.0000
    23 H1          85.8170    60.0157    14.8308 H            1 REA501   0.0000
    24 H2          84.6367    60.9824    15.4133 H            1 REA501   0.0000
    25 H3          85.7502    62.2458    13.8145 H            1 REA501   0.0000
    26 H4          84.3391    61.8005    13.1236 H            1 REA501   0.0000
    27 H5          86.8772    60.4962    12.7310 H            1 REA501   0.0000
    28 H6          86.0711    61.3570    11.6014 H            1 REA501   0.0000
    29 H7          83.6134    57.0056    12.9628 H            1 REA501   0.0000
    30 H8          82.8700    58.5067    10.5969 H            1 REA501   0.0000
    31 H9          80.9740    55.5004     9.7042 H            1 REA501   0.0000
    32 H10         81.4755    58.3541     9.0473 H            1 REA501   0.0000
    33 H11         79.9177    56.2746     7.7814 H            1 REA501   0.0000
    34 H12         79.0965    56.7944     5.5955 H            1 REA501   0.0000
    35 H13         81.8971    59.5993    13.7558 H            1 REA501   0.0000
    36 H14         82.3681    60.5663    14.9845 H            1 REA501   0.0000
    37 H15         82.6670    61.0044    13.4400 H            1 REA501   0.0000
    38 H16         83.1428    57.7201    14.7758 H            1 REA501   0.0000
    39 H17         84.7189    57.9094    15.1591 H            1 REA501   0.0000
    40 H18         83.5723    58.7154    15.9971 H            1 REA501   0.0000
    41 H19         84.9973    58.1547    10.5055 H            1 REA501   0.0000
    42 H20         85.3692    59.6479     9.9589 H            1 REA501   0.0000
    43 H21         86.5239    58.7179    10.6433 H            1 REA501   0.0000
    44 H22         81.9978    54.5642    11.4933 H            1 REA501   0.0000
    45 H23         83.4867    55.1616    11.7986 H            1 REA501   0.0000
    46 H24         82.2212    55.6080    12.7292 H            1 REA501   0.0000
    47 H25         80.0093    60.1448     6.3699 H            1 REA501   0.0000
    48 H26         79.8579    59.8783     7.9739 H            1 REA501   0.0000
    49 H27         81.2977    59.6448     7.2397 H            1 REA501   0.0000
@<TRIPOS>BOND
     1    1    2       1
     2    1    6       1
     3    1   16       1
     4    1   17       1
     5    2    3       1
     6    3    4       1
     7    4    5       1
     8    5    6       2
     9    5   18       1
    10    6    7       1
    11    7    8       2
    12    8    9       1
    13    9   10       2
    14    9   19       1
    15   10   11       1
    16   11   12       2
    17   12   13       1
    18   13   14       2
    19   13   20       1
    20   14   15       1
    21   15   21      ar
    22   15   22      ar
    23    2   23       1
    24    2   24       1
    25    3   25       1
    26    3   26       1
    27    4   27       1
    28    4   28       1
    29    7   29       1
    30    8   30       1
    31   10   31       1
    32   11   32       1
    33   12   33       1
    34   14   34       1
    35   16   35       1
    36   16   36       1
    37   16   37       1
    38   17   38       1
    39   17   39       1
    40   17   40       1
    41   18   41       1
    42   18   42       1
    43   18   43       1
    44   19   44       1
    45   19   45       1
    46   19   46       1
    47   20   47       1
    48   20   48       1
    49   20   49       1
@<TRIPOS>SUBSTRUCTURE
     1 REA501      1 GROUP             4 C     REA     0 **** REA C 501
