@<TRIPOS>MOLECULE
1nmk_SFM_2_ligand
  109   111     1     0     0
SMALL
NO_CHARGES


@<TRIPOS>ATOM
     1 C54         31.4630    -1.9260    62.4210 C.3          1 SFM201   0.0000
     2 C53         32.0450    -0.6440    61.8120 C.2          1 SFM201   0.0000
     3 O71         32.1590     0.2780    62.6120 O.2          1 SFM201   0.0000
     4 C52         32.4090    -0.4880    60.3630 C.3          1 SFM201   0.0000
     5 C51         31.7750     0.7900    59.8490 C.3          1 SFM201   0.0000
     6 C14         31.7220     0.8730    58.3310 C.3          1 SFM201   0.0000
     7 C13         30.6400    -0.0970    57.8270 C.2          1 SFM201   0.0000
     8 O70         30.9620    -1.1430    57.2650 O.2          1 SFM201   0.0000
     9 N12         29.3760     0.2900    58.0130 N.am         1 SFM201   0.0000
    10 C11         28.2620    -0.5090    57.5100 C.3          1 SFM201   0.0000
    11 C55         27.1350    -0.6490    58.5590 C.3          1 SFM201   0.0000
    12 C56         27.7150    -1.2680    59.8340 C.3          1 SFM201   0.0000
    13 C57         26.1360    -1.6870    58.0460 C.3          1 SFM201   0.0000
    14 C10         27.7630     0.3390    56.3550 C.2          1 SFM201   0.0000
    15 N9          27.9800    -0.1190    55.1390 N.am         1 SFM201   0.0000
    16 C8          27.7720     0.6350    53.9030 C.3          1 SFM201   0.0000
    17 C58         28.8780     0.1390    52.9490 C.3          1 SFM201   0.0000
    18 C59         28.8820     0.7430    51.5720 C.ar         1 SFM201   0.0000
    19 C64         29.5350     1.9650    51.3280 C.ar         1 SFM201   0.0000
    20 C63         29.5300     2.5650    50.0580 C.ar         1 SFM201   0.0000
    21 C62         28.8580     1.9260    49.0080 C.ar         1 SFM201   0.0000
    22 C61         28.1970     0.7290    49.2520 C.ar         1 SFM201   0.0000
    23 O68         27.5410     0.0800    48.2360 O.3          1 SFM201   0.0000
    24 C60         28.2220     0.1480    50.5100 C.ar         1 SFM201   0.0000
    25 C7          26.3790     0.3370    53.3180 C.2          1 SFM201   0.0000
    26 O67         25.9880    -0.8230    53.2260 O.2          1 SFM201   0.0000
    27 N6          25.5890     1.3550    52.9410 N.am         1 SFM201   0.0000
    28 C5          24.3780     1.1060    52.0940 C.3          1 SFM201   0.0000
    29 C4          24.5010     1.7260    50.6650 C.3          1 SFM201   0.0000
    30 C3          25.1240     3.1170    50.7150 C.3          1 SFM201   0.0000
    31 C2          26.3740     3.2320    51.6060 C.3          1 SFM201   0.0000
    32 N65         26.0990     2.6610    52.9390 N.3          1 SFM201   0.0000
    33 C1          26.7150     4.6990    51.7120 C.2          1 SFM201   0.0000
    34 O66         26.4170     5.3280    52.7100 O.2          1 SFM201   0.0000
    35 O65         27.3720     5.1280    50.6250 O.3          1 SFM201   0.0000
    36 C23         27.8590     6.4910    50.5590 C.3          1 SFM201   0.0000
    37 C22         29.3270     6.6540    50.9840 C.3          1 SFM201   0.0000
    38 C21         29.6130     6.2560    52.4310 C.2          1 SFM201   0.0000
    39 C20         30.6070     5.4730    52.8250 C.2          1 SFM201   0.0000
    40 C19         30.7540     5.1990    54.1310 C.2          1 SFM201   0.0000
    41 C18         31.7440     4.4320    54.5940 C.2          1 SFM201   0.0000
    42 C17         31.9240     4.1100    56.0950 C.3          1 SFM201   0.0000
    43 O73         33.1980     4.5430    56.5780 O.3          1 SFM201   0.0000
    44 C16         31.8510     2.5980    56.3460 C.3          1 SFM201   0.0000
    45 C50         30.7850     1.9480    55.4650 C.3          1 SFM201   0.0000
    46 C15         31.5340     2.3810    57.8700 C.3          1 SFM201   0.0000
    47 O72         30.2460     2.9460    58.1860 O.3          1 SFM201   0.0000
    48 C24         27.7440     6.8730    49.0900 C.2          1 SFM201   0.0000
    49 C49         27.9910     5.7470    48.0720 C.3          1 SFM201   0.0000
    50 C25         27.4670     8.0720    48.7400 C.2          1 SFM201   0.0000
    51 C26         27.3450     8.4960    47.3040 C.3          1 SFM201   0.0000
    52 O78         27.6720     9.8670    47.2660 O.3          1 SFM201   0.0000
    53 O69         27.1420     1.3770    56.5730 O.2          1 SFM201   0.0000
    54 H1          31.3990    -2.6312    61.7149 H            1 SFM201   0.0000
    55 H2          32.0588    -2.2453    63.1579 H            1 SFM201   0.0000
    56 H3          30.5518    -1.7372    62.7872 H            1 SFM201   0.0000
    57 H4          32.0656    -1.2694    59.8419 H            1 SFM201   0.0000
    58 H5          33.4030    -0.4346    60.2677 H            1 SFM201   0.0000
    59 H6          32.3056     1.5660    60.1901 H            1 SFM201   0.0000
    60 H7          30.8409     0.8441    60.2018 H            1 SFM201   0.0000
    61 H8          32.6023     0.5554    57.9787 H            1 SFM201   0.0000
    62 H9          29.1890     1.1405    58.5046 H            1 SFM201   0.0000
    63 H10         28.5738    -1.4046    57.1927 H            1 SFM201   0.0000
    64 H11         26.6925     0.2285    58.7437 H            1 SFM201   0.0000
    65 H12         26.9915    -1.3619    60.5179 H            1 SFM201   0.0000
    66 H13         28.0944    -2.1692    59.6243 H            1 SFM201   0.0000
    67 H14         28.4378    -0.6772    60.1924 H            1 SFM201   0.0000
    68 H15         25.3962    -1.7943    58.7102 H            1 SFM201   0.0000
    69 H16         25.7576    -1.3820    57.1720 H            1 SFM201   0.0000
    70 H17         26.6009    -2.5634    57.9203 H            1 SFM201   0.0000
    71 H18         28.3138    -1.0578    55.0541 H            1 SFM201   0.0000
    72 H19         27.8744     1.6151    54.0731 H            1 SFM201   0.0000
    73 H20         28.7740    -0.8505    52.8485 H            1 SFM201   0.0000
    74 H21         29.7608     0.3400    53.3736 H            1 SFM201   0.0000
    75 H22         30.0155     2.4185    52.0787 H            1 SFM201   0.0000
    76 H23         29.9990     3.4350    49.9057 H            1 SFM201   0.0000
    77 H24         28.8542     2.3275    48.0922 H            1 SFM201   0.0000
    78 H25         27.0667    -0.7815    48.4171 H            1 SFM201   0.0000
    79 H26         27.7517    -0.7226    50.6544 H            1 SFM201   0.0000
    80 H27         23.5823     1.5063    52.5486 H            1 SFM201   0.0000
    81 H28         24.2487     0.1185    52.0038 H            1 SFM201   0.0000
    82 H29         23.5894     1.7920    50.2592 H            1 SFM201   0.0000
    83 H30         25.0749     1.1324    50.1009 H            1 SFM201   0.0000
    84 H31         24.4354     3.7542    51.0612 H            1 SFM201   0.0000
    85 H32         25.3804     3.3768    49.7840 H            1 SFM201   0.0000
    86 H33         27.1346     2.7409    51.1814 H            1 SFM201   0.0000
    87 H34         25.4348     3.2521    53.3966 H            1 SFM201   0.0000
    88 H35         27.2768     7.0872    51.1119 H            1 SFM201   0.0000
    89 H36         29.5816     7.6140    50.8675 H            1 SFM201   0.0000
    90 H37         29.8909     6.0847    50.3857 H            1 SFM201   0.0000
    91 H38         29.0019     6.6146    53.1366 H            1 SFM201   0.0000
    92 H39         31.2424     5.0894    52.1549 H            1 SFM201   0.0000
    93 H40         30.0981     5.5834    54.7807 H            1 SFM201   0.0000
    94 H41         32.3976     4.0491    53.9411 H            1 SFM201   0.0000
    95 H42         31.2027     4.5649    56.6173 H            1 SFM201   0.0000
    96 H43         33.2825     5.5319    56.4554 H            1 SFM201   0.0000
    97 H44         32.7396     2.1898    56.1368 H            1 SFM201   0.0000
    98 H45         30.7566     0.9650    55.6464 H            1 SFM201   0.0000
    99 H46         29.8927     2.3506    55.6694 H            1 SFM201   0.0000
   100 H47         31.0080     2.1030    54.5026 H            1 SFM201   0.0000
   101 H48         32.2089     2.9169    58.3773 H            1 SFM201   0.0000
   102 H49         30.2817     3.3722    59.0899 H            1 SFM201   0.0000
   103 H50         27.8903     6.1079    47.1448 H            1 SFM201   0.0000
   104 H51         28.9164     5.3872    48.1909 H            1 SFM201   0.0000
   105 H52         27.3269     5.0138    48.2183 H            1 SFM201   0.0000
   106 H53         27.3254     8.7575    49.4542 H            1 SFM201   0.0000
   107 H54         26.4098     8.3541    46.9795 H            1 SFM201   0.0000
   108 H55         27.9786     7.9732    46.7337 H            1 SFM201   0.0000
   109 H56         28.4618    10.0049    46.6683 H            1 SFM201   0.0000
@<TRIPOS>BOND
     1    1    2       1
     2    2    3       2
     3    2    4       1
     4    4    5       1
     5    5    6       1
     6    6    7       1
     7    6   46       1
     8    7    8       2
     9    7    9      am
    10    9   10       1
    11   10   11       1
    12   10   14       1
    13   11   12       1
    14   11   13       1
    15   14   15      am
    16   14   53       2
    17   15   16       1
    18   16   17       1
    19   16   25       1
    20   17   18       1
    21   18   19      ar
    22   18   24      ar
    23   19   20      ar
    24   20   21      ar
    25   21   22      ar
    26   22   23       1
    27   22   24      ar
    28   25   26       2
    29   25   27      am
    30   27   28       1
    31   27   32       1
    32   28   29       1
    33   29   30       1
    34   30   31       1
    35   31   32       1
    36   31   33       1
    37   33   34       2
    38   33   35       1
    39   35   36       1
    40   36   37       1
    41   36   48       1
    42   37   38       1
    43   38   39       2
    44   39   40       1
    45   40   41       2
    46   41   42       1
    47   42   43       1
    48   42   44       1
    49   44   45       1
    50   44   46       1
    51   46   47       1
    52   48   49       1
    53   48   50       2
    54   50   51       1
    55   51   52       1
    56    1   54       1
    57    1   55       1
    58    1   56       1
    59    4   57       1
    60    4   58       1
    61    5   59       1
    62    5   60       1
    63    6   61       1
    64    9   62       1
    65   10   63       1
    66   11   64       1
    67   12   65       1
    68   12   66       1
    69   12   67       1
    70   13   68       1
    71   13   69       1
    72   13   70       1
    73   15   71       1
    74   16   72       1
    75   17   73       1
    76   17   74       1
    77   19   75       1
    78   20   76       1
    79   21   77       1
    80   23   78       1
    81   24   79       1
    82   28   80       1
    83   28   81       1
    84   29   82       1
    85   29   83       1
    86   30   84       1
    87   30   85       1
    88   31   86       1
    89   32   87       1
    90   36   88       1
    91   37   89       1
    92   37   90       1
    93   38   91       1
    94   39   92       1
    95   40   93       1
    96   41   94       1
    97   42   95       1
    98   43   96       1
    99   44   97       1
   100   45   98       1
   101   45   99       1
   102   45  100       1
   103   46  101       1
   104   47  102       1
   105   49  103       1
   106   49  104       1
   107   49  105       1
   108   50  106       1
   109   51  107       1
   110   51  108       1
   111   52  109       1
@<TRIPOS>SUBSTRUCTURE
     1 SFM201      1 GROUP             4 B     SFM     0 **** SFM B 201
