@<TRIPOS>MOLECULE
4s34_ANP_1_ligand
   44    46     1     0     0
SMALL
NO_CHARGES


@<TRIPOS>ATOM
     1 PG           2.4020     7.4630    12.5400 P.3          1 ANP402   0.0000
     2 O1G          3.1610     6.8360    11.3930 O.co2        1 ANP402   0.0000
     3 O2G          2.2030     6.5600    13.7520 O.co2        1 ANP402  -1.0000
     4 O3G          2.8650     8.8690    12.8800 O.co2        1 ANP402  -1.0000
     5 PB          -0.6380     7.6230    12.9100 P.3          1 ANP402   0.0000
     6 O1B         -1.6930     8.4750    12.2380 O.co2        1 ANP402   0.0000
     7 O2B         -0.9120     6.1440    13.1200 O.co2        1 ANP402  -1.0000
     8 N3B          0.7900     7.7020    11.8860 N.3          1 ANP402   0.0000
     9 PA           0.1700     9.8010    14.7290 P.3          1 ANP402   0.0000
    10 O1A          0.5110    10.5760    13.4730 O.co2        1 ANP402   0.0000
    11 O2A          1.2250     9.7390    15.8140 O.co2        1 ANP402  -1.0000
    12 O3A         -0.2580     8.2630    14.3640 O.3          1 ANP402   0.0000
    13 O5'         -1.1960    10.4180    15.3720 O.3          1 ANP402   0.0000
    14 C5'         -2.2810     9.6100    15.8920 C.3          1 ANP402   0.0000
    15 C4'         -3.2740     9.2110    14.7770 C.3          1 ANP402   0.0000
    16 O4'         -3.5490     7.7980    14.6380 O.3          1 ANP402   0.0000
    17 C3'         -4.6750     9.7950    14.8920 C.3          1 ANP402   0.0000
    18 O3'         -4.6550    11.1370    14.4240 O.3          1 ANP402   0.0000
    19 C2'         -5.5070     8.8940    13.9940 C.3          1 ANP402   0.0000
    20 O2'         -5.8180     9.6220    12.8130 O.3          1 ANP402   0.0000
    21 C1'         -4.5720     7.7490    13.6210 C.3          1 ANP402   0.0000
    22 N9          -5.1160     6.3670    13.3240 N.pl3        1 ANP402   0.0000
    23 C8          -4.2760     5.4650    12.7800 C.2          1 ANP402   0.0000
    24 N7          -4.8810     4.2860    12.5190 N.2          1 ANP402   0.0000
    25 C5          -6.1670     4.4020    12.8910 C.ar         1 ANP402   0.0000
    26 C6          -7.3200     3.4690    12.8680 C.ar         1 ANP402   0.0000
    27 N6          -7.1580     2.1940    12.3800 N.pl3        1 ANP402   0.0000
    28 N1          -8.5030     3.9300    13.3460 N.ar         1 ANP402   0.0000
    29 C2          -8.6100     5.1940    13.8170 C.ar         1 ANP402   0.0000
    30 N3          -7.5860     6.0880    13.8550 N.ar         1 ANP402   0.0000
    31 C4          -6.3360     5.7720    13.4140 C.ar         1 ANP402   0.0000
    32 H3B          0.6674     7.0077    11.1768 H            1 ANP402   0.0000
    33 H5'1        -2.7696    10.1327    16.5906 H            1 ANP402   0.0000
    34 H5'2        -1.9012     8.7803    16.3012 H            1 ANP402   0.0000
    35 H4'         -2.8900     9.5265    13.9092 H            1 ANP402   0.0000
    36 H3'         -5.0006     9.7532    15.8366 H            1 ANP402   0.0000
    37 H6          -3.7284    11.3746    14.1325 H            1 ANP402   0.0000
    38 H2'         -6.3307     8.5660    14.4566 H            1 ANP402   0.0000
    39 H8          -5.4152    10.5356    12.8688 H            1 ANP402   0.0000
    40 H1'         -4.1202     8.0413    12.7781 H            1 ANP402   0.0000
    41 H10         -3.3114     5.6482    12.5904 H            1 ANP402   0.0000
    42 H11         -7.9334     1.5628    12.3632 H            1 ANP402   0.0000
    43 H12         -6.2647     1.8978    12.0418 H            1 ANP402   0.0000
    44 H13         -9.5014     5.4904    14.1599 H            1 ANP402   0.0000
@<TRIPOS>BOND
     1    1    2      ar
     2    1    3      ar
     3    1    4      ar
     4    1    8       1
     5    5    6      ar
     6    5    7      ar
     7    5    8       1
     8    5   12       1
     9    9   10      ar
    10    9   11      ar
    11    9   12       1
    12    9   13       1
    13   13   14       1
    14   14   15       1
    15   15   16       1
    16   15   17       1
    17   16   21       1
    18   17   18       1
    19   17   19       1
    20   19   20       1
    21   19   21       1
    22   21   22       1
    23   22   23       1
    24   22   31       1
    25   23   24       2
    26   24   25       1
    27   25   26      ar
    28   25   31      ar
    29   26   27       1
    30   26   28      ar
    31   28   29      ar
    32   29   30      ar
    33   30   31      ar
    34   29   44       1
    35   27   43       1
    36   27   42       1
    37    8   32       1
    38   23   41       1
    39   14   33       1
    40   14   34       1
    41   15   35       1
    42   17   36       1
    43   18   37       1
    44   19   38       1
    45   20   39       1
    46   21   40       1
@<TRIPOS>SUBSTRUCTURE
     1 ANP402      1 GROUP             4 A     ANP     0 **** ANP A 402
