@<TRIPOS>MOLECULE
./coach420/1gsa/ligand.pdb
 50 45 0 0 0
SMALL
GASTEIGER

@<TRIPOS>ATOM
      1 MG         22.6150   19.0960   73.7570 Mg    319  MG319       0.0000
      2  O1        24.6920   17.3330   70.6690 O.3   400  SO4400      0.0000
      3  O2        23.7730   19.4760   70.6860 O.3   400  SO4400      0.0000
      4  O3        25.9650   19.2130   71.3690 O.3   400  SO4400      0.0000
      5  O4        24.2220   18.2110   72.7090 O.3   400  SO4400      0.0000
      6  O1B       21.9030   21.4040   70.9320 O.3   317  ADP317      0.0000
      7  O2B       22.9980   23.2600   71.9580 O.3   317  ADP317      0.0000
      8  O3B       23.2550   21.0110   72.8870 O.3   317  ADP317      0.0000
      9  PA        20.7280   21.5780   74.6240 P.3   317  ADP317      0.0000
     10  O1A       21.2490   20.1920   74.7070 O.3   317  ADP317      0.0000
     11  O2A       19.2700   21.4880   74.8360 O.3   317  ADP317     -0.5000
     12  O3A       21.0700   22.2600   73.2180 O.2   317  ADP317     -0.5000
     13  O5'       21.4100   22.5350   75.7330 O.3   317  ADP317      0.0000
     14  C5'       22.8070   22.8220   75.6810 C.3   317  ADP317      0.0000
     15  C4'       23.3320   23.1460   77.0600 C.3   317  ADP317      0.0000
     16  O4'       22.5280   24.1720   77.7050 O.3   317  ADP317      0.0000
     17  C3'       23.1660   21.9130   77.9430 C.3   317  ADP317      0.0000
     18  O3'       24.3240   21.0790   77.9040 O.3   317  ADP317      0.0000
     19  C2'       23.0450   22.5050   79.3170 C.3   317  ADP317      0.0000
     20  O2'       24.3250   22.9060   79.7980 O.3   317  ADP317      0.0000
     21  C1'       22.1940   23.7270   79.0290 C.3   317  ADP317      0.0000
     22  N9        20.7680   23.3620   79.1490 N.ar  317  ADP317      0.0000
     23  C8        19.8270   23.1640   78.1830 C.ar  317  ADP317      0.0000
     24  N7        18.5740   22.9250   78.7000 N.ar  317  ADP317      0.0000
     25  C5        18.7820   22.9920   80.0670 C.ar  317  ADP317      0.0000
     26  C6        17.9000   22.8710   81.1600 C.ar  317  ADP317      0.0000
     27  N6        16.5890   22.6880   81.0030 N.pl3 317  ADP317      0.0000
     28  N1        18.4230   22.9920   82.3890 N.ar  317  ADP317      0.0000
     29  C2        19.7270   23.2340   82.5330 C.ar  317  ADP317      0.0000
     30  N3        20.6530   23.3730   81.5970 N.ar  317  ADP317      0.0000
     31  C4        20.1010   23.2380   80.3530 C.ar  317  ADP317      0.0000
     32  CA1       30.9090   15.5340   64.7210 C.3   318  GSH318      0.0000
     33  C1        31.5420   14.2380   65.1960 C.2   318  GSH318      0.0000
     34  O11       31.2030   13.1700   64.6820 O.co2 318  GSH318      0.0000
     35  O12       32.3460   14.3130   66.1340 O.co2 318  GSH318      0.0000
     36  CB1       29.8730   15.9290   65.7320 C.3   318  GSH318      0.0000
     37  CG1       29.5210   17.3910   65.6790 C.3   318  GSH318      0.0000
     38  CD1       28.6110   17.7800   66.8340 C.2   318  GSH318      0.0000
     39  OE1       28.9160   18.7210   67.5930 O.2   318  GSH318      0.0000
     40  N2        27.5020   17.0500   67.0100 N.am  318  GSH318      0.0000
     41  CA2       26.6010   17.3460   68.1020 C.3   318  GSH318      0.0000
     42  C2        27.1000   16.5920   69.3230 C.2   318  GSH318      0.0000
     43  O2        26.9070   15.3780   69.4520 O.2   318  GSH318      0.0000
     44  CB2       25.2000   16.8750   67.7790 C.3   318  GSH318      0.0000
     45  SG2       24.7960   17.2760   66.0820 S.3   318  GSH318      0.0000
     46  N3        27.7120   17.3190   70.2530 N.am  318  GSH318      0.0000
     47  CA3       28.1550   16.7370   71.5110 C.3   318  GSH318      0.0000
     48  C3        28.7920   17.7660   72.4450 C.2   318  GSH318      0.0000
     49  O31       29.0710   18.9170   72.0560 O.co2 318  GSH318      0.0000
     50  O32       29.0210   17.3850   73.5900 O.co2 318  GSH318      0.0000
@<TRIPOS>BOND
     1     1    10    1
     2     9    12    2
     3     9    10    1
     4     9    11    1
     5     9    13    1
     6    13    14    1
     7    14    15    1
     8    15    16    1
     9    15    17    1
    10    16    21    1
    11    17    18    1
    12    17    19    1
    13    19    21    1
    14    19    20    1
    15    21    22    1
    16    22    23   ar
    17    22    31   ar
    18    23    24   ar
    19    24    25   ar
    20    25    31   ar
    21    25    26   ar
    22    26    27    1
    23    26    28   ar
    24    28    29   ar
    25    29    30   ar
    26    30    31   ar
    27    32    33    1
    28    32    36    1
    29    33    34   ar
    30    33    35   ar
    31    36    37    1
    32    37    38    1
    33    38    40   am
    34    38    39    2
    35    40    41    1
    36    41    44    1
    37    41    42    1
    38    42    43    2
    39    42    46   am
    40    44    45    1
    41    46    47    1
    42    47    48    1
    43    48    49   ar
    44    48    50   ar
    45     5     1    1
