@<TRIPOS>MOLECULE
4jz7_ANP_1_ligand
   44    46     1     0     0
SMALL
NO_CHARGES


@<TRIPOS>ATOM
     1 PG          53.4280    71.9000    59.1360 P.3          1 ANP1001   0.0000
     2 O1G         52.3510    71.0510    58.5070 O.co2        1 ANP1001   0.0000
     3 O2G         53.0120    72.2040    60.6460 O.co2        1 ANP1001  -1.0000
     4 O3G         53.6120    73.2840    58.3760 O.co2        1 ANP1001  -1.0000
     5 PB          56.3550    71.4210    59.7820 P.3          1 ANP1001   0.0000
     6 O1B         56.7070    70.3640    60.8590 O.co2        1 ANP1001   0.0000
     7 O2B         56.1720    72.8400    60.4000 O.co2        1 ANP1001  -1.0000
     8 N3B         54.8910    71.1260    59.0980 N.3          1 ANP1001   0.0000
     9 PA          58.1260    72.8470    58.2200 P.3          1 ANP1001   0.0000
    10 O1A         58.5620    72.6890    56.7640 O.co2        1 ANP1001   0.0000
    11 O2A         57.0410    73.9140    58.2670 O.co2        1 ANP1001  -1.0000
    12 O3A         57.5650    71.4860    58.7860 O.3          1 ANP1001   0.0000
    13 O5'         59.3610    73.3320    59.0880 O.3          1 ANP1001   0.0000
    14 C5'         60.5150    72.5040    59.1210 C.3          1 ANP1001   0.0000
    15 C4'         61.5870    72.8460    58.1650 C.3          1 ANP1001   0.0000
    16 O4'         61.9700    74.1500    58.3600 O.3          1 ANP1001   0.0000
    17 C3'         62.8480    72.0780    58.3520 C.3          1 ANP1001   0.0000
    18 O3'         62.7860    70.8900    57.6400 O.3          1 ANP1001   0.0000
    19 C2'         63.8360    72.9370    57.7560 C.3          1 ANP1001   0.0000
    20 O2'         63.9620    72.5140    56.4520 O.3          1 ANP1001   0.0000
    21 C1'         63.2510    74.2780    57.7030 C.3          1 ANP1001   0.0000
    22 N9          63.9770    75.4270    58.2960 N.pl3        1 ANP1001   0.0000
    23 C8          63.8980    76.7160    57.9030 C.2          1 ANP1001   0.0000
    24 N7          64.6640    77.4670    58.7120 N.2          1 ANP1001   0.0000
    25 C5          65.2230    76.6480    59.6410 C.ar         1 ANP1001   0.0000
    26 C6          66.0950    76.8560    60.7190 C.ar         1 ANP1001   0.0000
    27 N6          66.5980    78.1990    61.0300 N.pl3        1 ANP1001   0.0000
    28 N1          66.4640    75.7840    61.4520 N.ar         1 ANP1001   0.0000
    29 C2          66.0240    74.5360    61.1920 C.ar         1 ANP1001   0.0000
    30 N3          65.1980    74.3090    60.1640 N.ar         1 ANP1001   0.0000
    31 C4          64.7830    75.3370    59.3830 C.ar         1 ANP1001   0.0000
    32 H3B         55.1015    71.0889    58.1211 H            1 ANP1001   0.0000
    33 H5'1        60.2239    71.5664    58.9311 H            1 ANP1001   0.0000
    34 H5'2        60.9002    72.5533    60.0425 H            1 ANP1001   0.0000
    35 H4'         61.2552    72.7278    57.2291 H            1 ANP1001   0.0000
    36 H3'         63.0387    71.9160    59.3202 H            1 ANP1001   0.0000
    37 H6          62.0152    70.3442    57.9687 H            1 ANP1001   0.0000
    38 H2'         64.7057    72.9188    58.2493 H            1 ANP1001   0.0000
    39 H8          63.3440    71.7447    56.2899 H            1 ANP1001   0.0000
    40 H1'         63.0773    74.4939    56.7422 H            1 ANP1001   0.0000
    41 H10         63.3569    77.0568    57.1342 H            1 ANP1001   0.0000
    42 H11         67.2195    78.3338    61.8017 H            1 ANP1001   0.0000
    43 H12         66.3193    78.9794    60.4702 H            1 ANP1001   0.0000
    44 H13         66.3169    73.7753    61.7712 H            1 ANP1001   0.0000
@<TRIPOS>BOND
     1    1    2      ar
     2    1    3      ar
     3    1    4      ar
     4    1    8       1
     5    5    6      ar
     6    5    7      ar
     7    5    8       1
     8    5   12       1
     9    9   10      ar
    10    9   11      ar
    11    9   12       1
    12    9   13       1
    13   13   14       1
    14   14   15       1
    15   15   16       1
    16   15   17       1
    17   16   21       1
    18   17   18       1
    19   17   19       1
    20   19   20       1
    21   19   21       1
    22   21   22       1
    23   22   23       1
    24   22   31       1
    25   23   24       2
    26   24   25       1
    27   25   26      ar
    28   25   31      ar
    29   26   27       1
    30   26   28      ar
    31   28   29      ar
    32   29   30      ar
    33   30   31      ar
    34   29   44       1
    35   27   43       1
    36   27   42       1
    37    8   32       1
    38   23   41       1
    39   14   33       1
    40   14   34       1
    41   15   35       1
    42   17   36       1
    43   18   37       1
    44   19   38       1
    45   20   39       1
    46   21   40       1
@<TRIPOS>SUBSTRUCTURE
     1 ANP1001     1 GROUP             4 A     ANP     0 **** ANP A1001
