@<TRIPOS>MOLECULE
1jvd_UD1_2_ligand
   64    66     1     0     0
SMALL
NO_CHARGES


@<TRIPOS>ATOM
     1 C1'        -23.5300    19.2470    24.8290 C.3          1 UD1902   0.0000
     2 C2'        -23.4240    20.0540    26.1430 C.3          1 UD1902   0.0000
     3 C3'        -22.0320    19.9040    26.8010 C.3          1 UD1902   0.0000
     4 C4'        -21.8690    18.4250    27.1320 C.3          1 UD1902   0.0000
     5 C5'        -21.9160    17.6150    25.7780 C.3          1 UD1902   0.0000
     6 C6'        -21.7890    16.1040    26.0190 C.3          1 UD1902   0.0000
     7 C7'        -25.0180    21.8390    25.7930 C.2          1 UD1902   0.0000
     8 C8'        -25.2720    23.2710    25.4310 C.3          1 UD1902   0.0000
     9 N2'        -23.7480    21.4660    25.8040 N.am         1 UD1902   0.0000
    10 O1'        -22.6790    19.9800    23.8860 O.3          1 UD1902   0.0000
    11 O3'        -22.0220    20.7030    28.0000 O.3          1 UD1902   0.0000
    12 O4'        -20.6220    18.1790    27.7480 O.3          1 UD1902   0.0000
    13 O5'        -23.1790    17.8780    25.0830 O.3          1 UD1902   0.0000
    14 O6'        -21.3860    15.4800    24.8390 O.3          1 UD1902   0.0000
    15 O7'        -25.9820    21.0570    26.0610 O.2          1 UD1902   0.0000
    16 N1         -29.6550    20.5840    20.4150 N.pl3        1 UD1902   0.0000
    17 C2         -30.9680    20.9920    20.2380 C.2          1 UD1902   0.0000
    18 N3         -31.1780    22.2130    19.7430 N.pl3        1 UD1902   0.0000
    19 C4         -30.2370    23.0920    19.3930 C.2          1 UD1902   0.0000
    20 C5         -28.8180    22.7140    19.5500 C.2          1 UD1902   0.0000
    21 C6         -28.5330    21.4890    20.0490 C.2          1 UD1902   0.0000
    22 O2         -31.9480    20.3270    20.5010 O.2          1 UD1902   0.0000
    23 O4         -30.5490    24.1830    18.9600 O.2          1 UD1902   0.0000
    24 C1B        -29.4010    19.2740    20.9590 C.3          1 UD1902   0.0000
    25 C2B        -28.8570    18.2090    19.9960 C.3          1 UD1902   0.0000
    26 O2'        -29.9390    17.6980    19.1920 O.3          1 UD1902   0.0000
    27 C3B        -28.2280    17.2070    20.9800 C.3          1 UD1902   0.0000
    28 C4B        -27.7090    18.1520    22.0770 C.3          1 UD1902   0.0000
    29 O4B        -28.4700    19.3510    21.9980 O.3          1 UD1902   0.0000
    30 O3B        -29.2620    16.4160    21.5550 O.3          1 UD1902   0.0000
    31 C5B        -26.2600    18.6010    21.8620 C.3          1 UD1902   0.0000
    32 O5B        -26.1790    19.9910    21.7420 O.3          1 UD1902   0.0000
    33 PA         -24.9010    20.7140    21.3880 P.3          1 UD1902   0.0000
    34 O1A        -24.9070    21.8860    22.3210 O.co2        1 UD1902   0.0000
    35 O2A        -24.9590    21.1310    19.9980 O.co2        1 UD1902  -1.0000
    36 O3A        -23.8170    19.7190    21.6060 O.3          1 UD1902   0.0000
    37 PB         -22.4730    19.6860    22.3470 P.3          1 UD1902   0.0000
    38 O1B        -21.5160    20.6450    21.8160 O.co2        1 UD1902   0.0000
    39 O2B        -22.0310    18.3140    22.2600 O.co2        1 UD1902  -1.0000
    40 H1'        -24.4752    19.2824    24.5045 H            1 UD1902   0.0000
    41 H2'        -24.1150    19.7141    26.7809 H            1 UD1902   0.0000
    42 H3'        -21.3134    20.2042    26.1736 H            1 UD1902   0.0000
    43 H4'        -22.6105    18.1268    27.7331 H            1 UD1902   0.0000
    44 H5'        -21.1593    17.9139    25.1966 H            1 UD1902   0.0000
    45 H6'1       -22.6736    15.7362    26.3058 H            1 UD1902   0.0000
    46 H6'2       -21.1104    15.9359    26.7341 H            1 UD1902   0.0000
    47 H8'1       -26.2555    23.4506    25.4514 H            1 UD1902   0.0000
    48 H8'2       -24.8105    23.8677    26.0875 H            1 UD1902   0.0000
    49 H8'3       -24.9195    23.4502    24.5125 H            1 UD1902   0.0000
    50 H11        -23.0219    22.1192    25.5891 H            1 UD1902   0.0000
    51 H12        -21.7062    21.6265    27.7825 H            1 UD1902   0.0000
    52 H13        -20.7052    17.4002    28.3698 H            1 UD1902   0.0000
    53 H6'        -20.3872    15.4461    24.8042 H            1 UD1902   0.0000
    54 H15        -32.1296    22.4959    19.6230 H            1 UD1902   0.0000
    55 H16        -28.0871    23.3467    19.2943 H            1 UD1902   0.0000
    56 H17        -27.5842    21.1972    20.1696 H            1 UD1902   0.0000
    57 H1B        -30.2586    18.9305    21.3418 H            1 UD1902   0.0000
    58 H2B        -28.1502    18.6047    19.4096 H            1 UD1902   0.0000
    59 H20        -30.6320    17.2898    19.7863 H            1 UD1902   0.0000
    60 H3B        -27.5029    16.6574    20.5651 H            1 UD1902   0.0000
    61 H4B        -27.8137    17.7312    22.9781 H            1 UD1902   0.0000
    62 H23        -29.5962    16.8582    22.3874 H            1 UD1902   0.0000
    63 H5B1       -25.9076    18.1795    21.0264 H            1 UD1902   0.0000
    64 H5B2       -25.7075    18.3074    22.6421 H            1 UD1902   0.0000
@<TRIPOS>BOND
     1    1    2       1
     2    1   10       1
     3    1   13       1
     4    2    3       1
     5    2    9       1
     6    3    4       1
     7    3   11       1
     8    4    5       1
     9    4   12       1
    10    5    6       1
    11    5   13       1
    12    6   14       1
    13    7    8       1
    14    7    9      am
    15    7   15       2
    16   10   37       1
    17   16   17       1
    18   16   21       1
    19   16   24       1
    20   17   18       1
    21   17   22       2
    22   18   19       1
    23   19   20       1
    24   19   23       2
    25   20   21       2
    26   24   25       1
    27   24   29       1
    28   25   26       1
    29   25   27       1
    30   27   28       1
    31   27   30       1
    32   28   29       1
    33   28   31       1
    34   31   32       1
    35   32   33       1
    36   33   34      ar
    37   33   35      ar
    38   33   36       1
    39   36   37       1
    40   37   38      ar
    41   37   39      ar
    42    1   40       1
    43    2   41       1
    44    3   42       1
    45    4   43       1
    46    5   44       1
    47    6   45       1
    48    6   46       1
    49    8   47       1
    50    8   48       1
    51    8   49       1
    52    9   50       1
    53   11   51       1
    54   12   52       1
    55   14   53       1
    56   18   54       1
    57   20   55       1
    58   21   56       1
    59   24   57       1
    60   25   58       1
    61   26   59       1
    62   27   60       1
    63   28   61       1
    64   30   62       1
    65   31   63       1
    66   31   64       1
@<TRIPOS>SUBSTRUCTURE
     1 UD1902      1 GROUP             4 B     UD1     0 **** UD1 B 902
