@<TRIPOS>MOLECULE
2jjx_ATP_1_ligand
   43    45     1     0     0
SMALL
NO_CHARGES


@<TRIPOS>ATOM
     1 PG          41.7870   -26.8470   119.0310 P.3          1 ATP1246   0.0000
     2 O1G         42.8100   -27.4320   119.9970 O.co2        1 ATP1246   0.0000
     3 O2G         40.4520   -27.4050   119.4820 O.co2        1 ATP1246  -1.0000
     4 O3G         42.1040   -27.3050   117.6130 O.co2        1 ATP1246  -1.0000
     5 PB          41.7970   -24.0970   117.9970 P.3          1 ATP1246   0.0000
     6 O1B         43.0350   -23.1900   118.2540 O.co2        1 ATP1246   0.0000
     7 O2B         40.5240   -23.2140   118.1510 O.co2        1 ATP1246  -1.0000
     8 O3B         41.7250   -25.2490   119.1040 O.3          1 ATP1246   0.0000
     9 PA          42.8140   -24.9850   115.3540 P.3          1 ATP1246   0.0000
    10 O1A         43.4450   -26.3930   115.5210 O.co2        1 ATP1246   0.0000
    11 O2A         43.9530   -23.9380   115.2990 O.co2        1 ATP1246  -1.0000
    12 O3A         41.7900   -24.7300   116.5370 O.3          1 ATP1246   0.0000
    13 O5'         41.9910   -24.9030   113.9490 O.3          1 ATP1246   0.0000
    14 C5'         40.5830   -25.1820   113.9590 C.3          1 ATP1246   0.0000
    15 C4'         40.3100   -26.2840   112.9360 C.3          1 ATP1246   0.0000
    16 O4'         40.8130   -25.9180   111.6170 O.3          1 ATP1246   0.0000
    17 C3'         40.8540   -27.6710   113.2930 C.3          1 ATP1246   0.0000
    18 O3'         39.9090   -28.4720   114.0070 O.3          1 ATP1246   0.0000
    19 C2'         41.2050   -28.2980   111.9410 C.3          1 ATP1246   0.0000
    20 O2'         40.0470   -29.0480   111.5200 O.3          1 ATP1246   0.0000
    21 C1'         41.4950   -27.0840   111.0380 C.3          1 ATP1246   0.0000
    22 N9          41.3770   -27.3090   109.5860 N.pl3        1 ATP1246   0.0000
    23 C8          40.9000   -28.4430   108.9650 C.2          1 ATP1246   0.0000
    24 N7          40.9390   -28.3800   107.6530 N.2          1 ATP1246   0.0000
    25 C5          41.4730   -27.1330   107.4100 C.ar         1 ATP1246   0.0000
    26 C6          41.7510   -26.4880   106.2030 C.ar         1 ATP1246   0.0000
    27 N6          41.5010   -27.1090   105.0040 N.pl3        1 ATP1246   0.0000
    28 N1          42.2780   -25.2310   106.2450 N.ar         1 ATP1246   0.0000
    29 C2          42.5060   -24.6450   107.4460 C.ar         1 ATP1246   0.0000
    30 N3          42.2810   -25.1850   108.6680 N.ar         1 ATP1246   0.0000
    31 C4          41.7570   -26.4360   108.5800 C.ar         1 ATP1246   0.0000
    32 H5'1        40.0724   -24.3579   113.7138 H            1 ATP1246   0.0000
    33 H5'2        40.3046   -25.4881   114.8694 H            1 ATP1246   0.0000
    34 H4'         39.3169   -26.3705   112.8569 H            1 ATP1246   0.0000
    35 H3'         41.6856   -27.5715   113.8394 H            1 ATP1246   0.0000
    36 H5          40.0177   -28.3197   114.9893 H            1 ATP1246   0.0000
    37 H2'         42.0079   -28.8893   112.0168 H            1 ATP1246   0.0000
    38 H7          39.2208   -28.6176   111.8836 H            1 ATP1246   0.0000
    39 H1'         42.4670   -26.8972   111.1805 H            1 ATP1246   0.0000
    40 H9          40.5569   -29.2381   109.4651 H            1 ATP1246   0.0000
    41 H10         41.7037   -26.6383   104.1453 H            1 ATP1246   0.0000
    42 H11         41.1162   -28.0319   104.9896 H            1 ATP1246   0.0000
    43 H12         42.8792   -23.7174   107.4281 H            1 ATP1246   0.0000
@<TRIPOS>BOND
     1    1    2      ar
     2    1    3      ar
     3    1    4      ar
     4    1    8       1
     5    5    6      ar
     6    5    7      ar
     7    5    8       1
     8    5   12       1
     9    9   10      ar
    10    9   11      ar
    11    9   12       1
    12    9   13       1
    13   13   14       1
    14   14   15       1
    15   15   16       1
    16   15   17       1
    17   16   21       1
    18   17   18       1
    19   17   19       1
    20   19   20       1
    21   19   21       1
    22   21   22       1
    23   22   23       1
    24   22   31       1
    25   23   24       2
    26   24   25       1
    27   25   26      ar
    28   25   31      ar
    29   26   27       1
    30   26   28      ar
    31   28   29      ar
    32   29   30      ar
    33   30   31      ar
    34   29   43       1
    35   27   42       1
    36   27   41       1
    37   23   40       1
    38   14   32       1
    39   14   33       1
    40   15   34       1
    41   17   35       1
    42   18   36       1
    43   19   37       1
    44   20   38       1
    45   21   39       1
@<TRIPOS>SUBSTRUCTURE
     1 ATP1246     1 GROUP             4 A     ATP     0 **** ATP A1246
