@<TRIPOS>MOLECULE
2xtn_GTP_1_ligand
   44    46     1     0     0
SMALL
NO_CHARGES


@<TRIPOS>ATOM
     1 PG           6.9930    21.8690    19.6320 P.3          1 GTP1231   0.0000
     2 O1G          7.8650    22.2700    20.7960 O.co2        1 GTP1231   0.0000
     3 O2G          7.8200    21.5590    18.4240 O.co2        1 GTP1231  -1.0000
     4 O3G          6.0060    22.9600    19.3050 O.co2        1 GTP1231  -1.0000
     5 O3B          6.1980    20.5910    20.1850 O.3          1 GTP1231   0.0000
     6 PB           5.3220    19.5220    19.3700 P.3          1 GTP1231   0.0000
     7 O1B          6.0300    19.1310    18.1060 O.co2        1 GTP1231   0.0000
     8 O2B          3.8930    19.9600    19.1700 O.co2        1 GTP1231  -1.0000
     9 O3A          5.3240    18.2640    20.3730 O.3          1 GTP1231   0.0000
    10 PA           6.5240    17.2000    20.5410 P.3          1 GTP1231   0.0000
    11 O1A          7.8610    17.8830    20.6730 O.co2        1 GTP1231   0.0000
    12 O2A          6.4960    16.1950    19.4370 O.co2        1 GTP1231  -1.0000
    13 O5'          6.0840    16.5130    21.9220 O.3          1 GTP1231   0.0000
    14 C5'          6.3060    17.1330    23.1780 C.3          1 GTP1231   0.0000
    15 C4'          6.2320    16.0430    24.2500 C.3          1 GTP1231   0.0000
    16 O4'          4.8950    15.5680    24.3520 O.3          1 GTP1231   0.0000
    17 C3'          7.0940    14.8420    23.8950 C.3          1 GTP1231   0.0000
    18 O3'          7.7270    14.3690    25.0630 O.3          1 GTP1231   0.0000
    19 C2'          6.1110    13.8000    23.4090 C.3          1 GTP1231   0.0000
    20 O2'          6.5670    12.4910    23.6610 O.3          1 GTP1231   0.0000
    21 C1'          4.8630    14.1620    24.2020 C.3          1 GTP1231   0.0000
    22 N9           3.6360    13.7230    23.5200 N.pl3        1 GTP1231   0.0000
    23 C8           3.1620    14.1260    22.2980 C.2          1 GTP1231   0.0000
    24 N7           2.0050    13.4710    22.0590 N.2          1 GTP1231   0.0000
    25 C5           1.7370    12.6530    23.0990 C.2          1 GTP1231   0.0000
    26 C6           0.6970    11.7680    23.3730 C.2          1 GTP1231   0.0000
    27 O6          -0.2320    11.5970    22.5740 O.2          1 GTP1231   0.0000
    28 N1           0.7160    11.0680    24.5680 N.pl3        1 GTP1231   0.0000
    29 C2           1.7410    11.2410    25.4720 C.2          1 GTP1231   0.0000
    30 N2           1.7460    10.5570    26.6160 N.pl3        1 GTP1231   0.0000
    31 N3           2.7650    12.1190    25.1950 N.2          1 GTP1231   0.0000
    32 C4           2.7540    12.8160    24.0320 C.2          1 GTP1231   0.0000
    33 H5'1         5.6038    17.8249    23.3459 H            1 GTP1231   0.0000
    34 H5'2         7.2083    17.5638    23.1911 H            1 GTP1231   0.0000
    35 H4'          6.5236    16.4173    25.1303 H            1 GTP1231   0.0000
    36 H3'          7.7618    15.0704    23.1865 H            1 GTP1231   0.0000
    37 H5           7.4536    13.4217    25.2300 H            1 GTP1231   0.0000
    38 H2'          5.9412    13.9203    22.4309 H            1 GTP1231   0.0000
    39 H7           5.7831    11.8858    23.7993 H            1 GTP1231   0.0000
    40 H1'          4.9100    13.7332    25.1042 H            1 GTP1231   0.0000
    41 H9           3.5972    14.7895    21.6895 H            1 GTP1231   0.0000
    42 H10         -0.0239    10.4287    24.7773 H            1 GTP1231   0.0000
    43 H11          2.4908    10.6838    27.2711 H            1 GTP1231   0.0000
    44 H12          1.0049     9.9170    26.8192 H            1 GTP1231   0.0000
@<TRIPOS>BOND
     1    1    2      ar
     2    1    3      ar
     3    1    4      ar
     4    1    5       1
     5    5    6       1
     6    6    7      ar
     7    6    8      ar
     8    6    9       1
     9    9   10       1
    10   10   11      ar
    11   10   12      ar
    12   10   13       1
    13   13   14       1
    14   14   15       1
    15   15   16       1
    16   15   17       1
    17   16   21       1
    18   17   18       1
    19   17   19       1
    20   19   20       1
    21   19   21       1
    22   21   22       1
    23   22   23       1
    24   22   32       1
    25   23   24       2
    26   24   25       1
    27   25   26       1
    28   25   32       2
    29   26   27       2
    30   26   28       1
    31   28   29       1
    32   29   30       1
    33   29   31       2
    34   31   32       1
    35   30   44       1
    36   30   43       1
    37   28   42       1
    38   23   41       1
    39   14   33       1
    40   14   34       1
    41   15   35       1
    42   17   36       1
    43   18   37       1
    44   19   38       1
    45   20   39       1
    46   21   40       1
@<TRIPOS>SUBSTRUCTURE
     1 GTP1231     1 GROUP             4 A     GTP     0 **** GTP A1231
