@<TRIPOS>MOLECULE
4ww9_ADP_1_ligand
   39    41     1     0     0
SMALL
NO_CHARGES


@<TRIPOS>ATOM
     1 PB          22.8550    12.8970     2.1040 P.3          1 ADP302   0.0000
     2 O1B         23.8750    13.1150     1.0520 O.co2        1 ADP302   0.0000
     3 O2B         23.2110    13.5740     3.3810 O.co2        1 ADP302  -1.0000
     4 O3B         22.1790    11.5660     2.2820 O.co2        1 ADP302  -1.0000
     5 PA          20.5510    14.2830     2.2850 P.3          1 ADP302   0.0000
     6 O1A         19.6750    14.9300     1.2650 O.co2        1 ADP302   0.0000
     7 O2A         21.2560    15.2020     3.2110 O.co2        1 ADP302  -1.0000
     8 O3A         21.5650    13.4640     1.4550 O.3          1 ADP302   0.0000
     9 O5'         19.5790    13.2460     3.0620 O.3          1 ADP302   0.0000
    10 C5'         19.8450    12.1770     3.9440 C.3          1 ADP302   0.0000
    11 C4'         18.6380    12.0310     4.8530 C.3          1 ADP302   0.0000
    12 O4'         17.7100    11.1140     4.3130 O.3          1 ADP302   0.0000
    13 C3'         19.0280    11.4750     6.1970 C.3          1 ADP302   0.0000
    14 O3'         19.2610    12.4680     7.1430 O.3          1 ADP302   0.0000
    15 C2'         17.8470    10.6630     6.6050 C.3          1 ADP302   0.0000
    16 O2'         16.9910    11.4670     7.3690 O.3          1 ADP302   0.0000
    17 C1'         17.1900    10.2600     5.3010 C.3          1 ADP302   0.0000
    18 N9          17.5440     8.8540     5.0560 N.pl3        1 ADP302   0.0000
    19 C8          18.5060     8.4190     4.2740 C.2          1 ADP302   0.0000
    20 N7          18.6050     7.0930     4.2900 N.2          1 ADP302   0.0000
    21 C5          17.6600     6.6590     5.0990 C.ar         1 ADP302   0.0000
    22 C6          17.2010     5.3580     5.5450 C.ar         1 ADP302   0.0000
    23 N6          17.7860     4.2710     5.1110 N.pl3        1 ADP302   0.0000
    24 N1          16.2120     5.3110     6.4120 N.ar         1 ADP302   0.0000
    25 C2          15.6160     6.4070     6.8480 C.ar         1 ADP302   0.0000
    26 N3          15.9670     7.6160     6.4720 N.ar         1 ADP302   0.0000
    27 C4          16.9630     7.8150     5.6070 C.ar         1 ADP302   0.0000
    28 H5'1        20.6605    12.3764     4.4873 H            1 ADP302   0.0000
    29 H5'2        19.9875    11.3335     3.4262 H            1 ADP302   0.0000
    30 H4'         18.1988    12.9213     4.9730 H            1 ADP302   0.0000
    31 H3'         19.8337    10.8896     6.1068 H            1 ADP302   0.0000
    32 H5          19.5154    12.0462     8.0133 H            1 ADP302   0.0000
    33 H2'         18.1325     9.8565     7.1227 H            1 ADP302   0.0000
    34 H7          17.4758    11.7928     8.1807 H            1 ADP302   0.0000
    35 H1'         16.1974    10.3637     5.3641 H            1 ADP302   0.0000
    36 H9          19.0955     9.0159     3.7298 H            1 ADP302   0.0000
    37 H10         17.4679     3.3746     5.4198 H            1 ADP302   0.0000
    38 H11         18.5512     4.3366     4.4705 H            1 ADP302   0.0000
    39 H12         14.8605     6.3114     7.4961 H            1 ADP302   0.0000
@<TRIPOS>BOND
     1    1    2      ar
     2    1    3      ar
     3    1    4      ar
     4    1    8       1
     5    5    6      ar
     6    5    7      ar
     7    5    8       1
     8    5    9       1
     9    9   10       1
    10   10   11       1
    11   11   12       1
    12   11   13       1
    13   12   17       1
    14   13   14       1
    15   13   15       1
    16   15   16       1
    17   15   17       1
    18   17   18       1
    19   18   19       1
    20   18   27       1
    21   19   20       2
    22   20   21       1
    23   21   22      ar
    24   21   27      ar
    25   22   23       1
    26   22   24      ar
    27   24   25      ar
    28   25   26      ar
    29   26   27      ar
    30   25   39       1
    31   23   38       1
    32   23   37       1
    33   10   28       1
    34   10   29       1
    35   11   30       1
    36   13   31       1
    37   14   32       1
    38   15   33       1
    39   16   34       1
    40   17   35       1
    41   19   36       1
@<TRIPOS>SUBSTRUCTURE
     1 ADP302      1 GROUP             4 A     ADP     0 **** ADP A 302
