@<TRIPOS>MOLECULE
1nbu_PH2_2_ligand
   21    22     1     0     0
SMALL
NO_CHARGES


@<TRIPOS>ATOM
     1 N1           4.3350    23.9540    28.0980 N.ar         1 PH2320   0.0000
     2 C2           5.4930    24.3480    28.4940 C.ar         1 PH2320   0.0000
     3 C3           5.9780    24.1400    29.9640 C.ar         1 PH2320   0.0000
     4 N4           5.0880    23.5000    30.6680 N.ar         1 PH2320   0.0000
     5 N5           3.2810    22.0100    30.9650 N.2          1 PH2320   0.0000
     6 C6           2.1530    21.5310    30.6250 C.2          1 PH2320   0.0000
     7 N6           1.3980    20.7760    31.2970 N.pl3        1 PH2320   0.0000
     8 N7           1.6410    21.9620    29.3240 N.pl3        1 PH2320   0.0000
     9 C8           2.3820    22.6700    28.4760 C.2          1 PH2320   0.0000
    10 O8           1.9450    22.8910    27.2870 O.2          1 PH2320   0.0000
    11 C9           3.5120    23.2600    28.9330 C.ar         1 PH2320   0.0000
    12 C10          3.9740    22.8880    30.2940 C.ar         1 PH2320   0.0000
    13 C11          6.2970    25.3080    27.6660 C.3          1 PH2320   0.0000
    14 O4           5.8650    25.5160    26.3910 O.3          1 PH2320   0.0000
    15 H1           6.8576    24.4570    30.3188 H            1 PH2320   0.0000
    16 H2           0.5288    20.4666    30.9114 H            1 PH2320   0.0000
    17 H3           1.6688    20.4870    32.2152 H            1 PH2320   0.0000
    18 H4           7.2326    24.9583    27.6172 H            1 PH2320   0.0000
    19 H5           6.2952    26.1908    28.1358 H            1 PH2320   0.0000
    20 H6           6.6463    25.7321    25.8054 H            1 PH2320   0.0000
    21 H7           0.7067    21.7172    29.0647 H            1 PH2320   0.0000
@<TRIPOS>BOND
     1    1    2      ar
     2    1   11      ar
     3    2    3      ar
     4    2   13       1
     5    3    4      ar
     6    4   12      ar
     7    5    6       2
     8    5   12       1
     9    6    7       1
    10    6    8       1
    11    8    9       1
    12    9   10       2
    13    9   11       1
    14   11   12      ar
    15   13   14       1
    16    3   15       1
    17   14   20       1
    18    7   16       1
    19    7   17       1
    20   13   18       1
    21   13   19       1
    22    8   21       1
@<TRIPOS>SUBSTRUCTURE
     1 PH2320      1 GROUP             4 B     PH2     0 **** PH2 B 320
