@<TRIPOS>MOLECULE
4nec_SAH_2_ligand
   46    48     1     0     0
SMALL
NO_CHARGES


@<TRIPOS>ATOM
     1 N            2.0380    99.1000    39.1900 N.4          1 SAH401   1.0000
     2 CA           1.6430    99.3750    40.6080 C.3          1 SAH401   0.0000
     3 CB           0.1590    99.7480    40.7360 C.3          1 SAH401   0.0000
     4 CG          -0.8080    98.7950    40.0380 C.3          1 SAH401   0.0000
     5 SD          -2.4960    99.1450    40.4650 S.3          1 SAH401   0.0000
     6 C            1.9430    98.2070    41.4960 C.2          1 SAH401   0.0000
     7 O            2.3650    97.1440    41.0270 O.co2        1 SAH401   0.0000
     8 OXT          1.7690    98.3010    42.7140 O.co2        1 SAH401  -1.0000
     9 C5'         -3.0400    99.9750    39.0030 C.3          1 SAH401   0.0000
    10 C4'         -2.5010   101.4040    38.9500 C.3          1 SAH401   0.0000
    11 O4'         -2.8420   102.0090    37.7000 O.3          1 SAH401   0.0000
    12 C3'         -3.0860   102.3070    40.0360 C.3          1 SAH401   0.0000
    13 O3'         -2.0350   102.9510    40.7580 O.3          1 SAH401   0.0000
    14 C2'         -3.9390   103.3150    39.2830 C.3          1 SAH401   0.0000
    15 O2'         -4.0160   104.6130    39.8930 O.3          1 SAH401   0.0000
    16 C1'         -3.2450   103.3510    37.9340 C.3          1 SAH401   0.0000
    17 N9          -4.0710   103.7880    36.7960 N.pl3        1 SAH401   0.0000
    18 C8          -5.3090   103.3690    36.4890 C.2          1 SAH401   0.0000
    19 N7          -5.7430   103.9620    35.3540 N.2          1 SAH401   0.0000
    20 C5          -4.7680   104.7770    34.9220 C.ar         1 SAH401   0.0000
    21 C6          -4.5740   105.6960    33.7780 C.ar         1 SAH401   0.0000
    22 N6          -5.5570   105.8640    32.8570 N.pl3        1 SAH401   0.0000
    23 N1          -3.3860   106.3620    33.6940 N.ar         1 SAH401   0.0000
    24 C2          -2.4070   106.1910    34.6090 C.ar         1 SAH401   0.0000
    25 N3          -2.5210   105.3730    35.6750 N.ar         1 SAH401   0.0000
    26 C4          -3.6530   104.6500    35.8700 C.ar         1 SAH401   0.0000
    27 H1           3.0087    98.8622    39.1545 H            1 SAH401   0.0000
    28 H2           1.4952    98.3392    38.8343 H            1 SAH401   0.0000
    29 HA           2.1831   100.1521    40.9312 H            1 SAH401   0.0000
    30 HB1          0.0333   100.6595    40.3443 H            1 SAH401   0.0000
    31 HB2         -0.0731    99.7682    41.7085 H            1 SAH401   0.0000
    32 HG1         -0.5924    97.8573    40.3104 H            1 SAH401   0.0000
    33 HG2         -0.6978    98.8884    39.0485 H            1 SAH401   0.0000
    34 H5'1        -4.0396   100.0023    38.9955 H            1 SAH401   0.0000
    35 H5'2        -2.7142    99.4730    38.2018 H            1 SAH401   0.0000
    36 H4'         -1.5056   101.3824    39.0429 H            1 SAH401   0.0000
    37 H3'         -3.6552   101.7715    40.6600 H            1 SAH401   0.0000
    38 H12         -1.4896   103.5052    40.1292 H            1 SAH401   0.0000
    39 H2'         -4.8622   102.9477    39.1700 H            1 SAH401   0.0000
    40 H14         -3.0984   105.0048    39.9601 H            1 SAH401   0.0000
    41 H1'         -2.4341   103.9329    37.9957 H            1 SAH401   0.0000
    42 H16         -5.8367   102.7101    37.0251 H            1 SAH401   0.0000
    43 H17         -5.4193   106.4865    32.0866 H            1 SAH401   0.0000
    44 H18         -6.4189   105.3653    32.9490 H            1 SAH401   0.0000
    45 H19         -1.5531   106.6975    34.4896 H            1 SAH401   0.0000
    46 H20          1.8740    99.9150    38.6342 H            1 SAH401   0.0000
@<TRIPOS>BOND
     1    1    2       1
     2    2    3       1
     3    2    6       1
     4    3    4       1
     5    4    5       1
     6    5    9       1
     7    6    7      ar
     8    6    8      ar
     9    9   10       1
    10   10   11       1
    11   10   12       1
    12   11   16       1
    13   12   13       1
    14   12   14       1
    15   14   15       1
    16   14   16       1
    17   16   17       1
    18   17   18       1
    19   17   26       1
    20   18   19       2
    21   19   20       1
    22   20   21      ar
    23   20   26      ar
    24   21   22       1
    25   21   23      ar
    26   23   24      ar
    27   24   25      ar
    28   25   26      ar
    29    1   27       1
    30    1   28       1
    31    2   29       1
    32    3   30       1
    33    3   31       1
    34    4   32       1
    35    4   33       1
    36    1   46       1
    37    9   34       1
    38    9   35       1
    39   10   36       1
    40   12   37       1
    41   13   38       1
    42   14   39       1
    43   15   40       1
    44   16   41       1
    45   18   42       1
    46   22   43       1
    47   22   44       1
    48   24   45       1
@<TRIPOS>SUBSTRUCTURE
     1 SAH401      1 GROUP             4 B     SAH     0 **** SAH B 401
