@<TRIPOS>MOLECULE
4uhi_VFV_7_ligand
   64    69     1     0     0
SMALL
NO_CHARGES


@<TRIPOS>ATOM
     1 CAO         34.2270    42.4750   -19.2060 C.ar         1 VFV580   0.0000
     2 CAK         34.7780    43.4060   -20.0840 C.ar         1 VFV580   0.0000
     3 CBD         35.5260    42.9770   -21.1810 C.ar         1 VFV580   0.0000
     4 FAB         36.0700    43.8950   -22.0610 F            1 VFV580   0.0000
     5 CAJ         35.7220    41.6220   -21.3970 C.ar         1 VFV580   0.0000
     6 CAN         35.1720    40.6930   -20.5210 C.ar         1 VFV580   0.0000
     7 CBG         34.4290    41.1150   -19.4150 C.ar         1 VFV580   0.0000
     8 CBJ         33.8920    40.1590   -18.5510 C.ar         1 VFV580   0.0000
     9 CAV         34.5950    38.9820   -18.3490 C.ar         1 VFV580   0.0000
    10 CBE         34.1040    38.0010   -17.5100 C.ar         1 VFV580   0.0000
    11 FAC         34.8310    36.8380   -17.3420 F            1 VFV580   0.0000
    12 CAR         32.6690    40.3470   -17.9030 C.ar         1 VFV580   0.0000
    13 CAS         32.1700    39.3530   -17.0570 C.ar         1 VFV580   0.0000
    14 CBK         32.8960    38.1850   -16.8490 C.ar         1 VFV580   0.0000
    15 CBN         32.4220    37.1560   -16.0280 C.3          1 VFV580   0.0000
    16 CAW         31.1520    36.5620   -16.6400 C.3          1 VFV580   0.0000
    17 NBO         31.3670    35.9500   -17.9500 N.pl3        1 VFV580   0.0000
    18 CAT         32.2250    34.9920   -18.3450 C.2          1 VFV580   0.0000
    19 CAG         32.0010    34.7550   -19.6310 C.2          1 VFV580   0.0000
    20 NAX         31.0010    35.5450   -20.0200 N.2          1 VFV580   0.0000
    21 CAU         30.6090    36.2820   -18.9870 C.2          1 VFV580   0.0000
    22 NBA         32.0630    37.5520   -14.6540 N.am         1 VFV580   0.0000
    23 CBC         32.9720    37.6490   -13.6630 C.2          1 VFV580   0.0000
    24 OAA         34.1810    37.4610   -13.8350 O.2          1 VFV580   0.0000
    25 CBF         32.4110    37.7670   -12.3740 C.ar         1 VFV580   0.0000
    26 CAM         32.9810    37.0440   -11.3230 C.ar         1 VFV580   0.0000
    27 CAQ         32.4220    37.0790   -10.0410 C.ar         1 VFV580   0.0000
    28 CAL         31.2400    38.4910   -12.1280 C.ar         1 VFV580   0.0000
    29 CAP         30.6850    38.5340   -10.8420 C.ar         1 VFV580   0.0000
    30 CBI         31.2880    37.8380    -9.7850 C.ar         1 VFV580   0.0000
    31 CBM         30.7500    37.7980    -8.5540 C.2          1 VFV580   0.0000
    32 OBB         31.0750    36.8640    -7.6380 O.2          1 VFV580   0.0000
    33 NAZ         29.7400    38.5380    -8.0900 N.2          1 VFV580   0.0000
    34 NAY         29.4640    38.1380    -6.8750 N.2          1 VFV580   0.0000
    35 CBL         30.2760    37.1240    -6.5950 C.2          1 VFV580   0.0000
    36 CBH         30.3030    36.4360    -5.4500 C.ar         1 VFV580   0.0000
    37 CAI         31.3290    35.5270    -5.2330 C.ar         1 VFV580   0.0000
    38 CAF         31.3730    34.7930    -4.0530 C.ar         1 VFV580   0.0000
    39 CAD         30.3890    34.9690    -3.0840 C.ar         1 VFV580   0.0000
    40 CAE         29.3610    35.8750    -3.3000 C.ar         1 VFV580   0.0000
    41 CAH         29.3160    36.6100    -4.4820 C.ar         1 VFV580   0.0000
    42 HAO         33.6856    42.7851   -18.4245 H            1 VFV580   0.0000
    43 HAK         34.6371    44.3836   -19.9277 H            1 VFV580   0.0000
    44 HAJ         36.2585    41.3129   -22.1822 H            1 VFV580   0.0000
    45 HAN         35.3090    39.7158   -20.6834 H            1 VFV580   0.0000
    46 HAV         35.4679    38.8413   -18.8161 H            1 VFV580   0.0000
    47 HAR         32.1516    41.1910   -18.0442 H            1 VFV580   0.0000
    48 HAS         31.2896    39.4816   -16.6005 H            1 VFV580   0.0000
    49 HBN         33.1181    36.4396   -15.9813 H            1 VFV580   0.0000
    50 HAW1        30.4767    37.2928   -16.7391 H            1 VFV580   0.0000
    51 HAW2        30.7981    35.8632   -16.0184 H            1 VFV580   0.0000
    52 HAT         32.9087    34.5398   -17.7722 H            1 VFV580   0.0000
    53 HAG         32.4939    34.1012   -20.2050 H            1 VFV580   0.0000
    54 HAU         29.8764    36.9627   -18.9903 H            1 VFV580   0.0000
    55 HBA         31.1060    37.7571   -14.4486 H            1 VFV580   0.0000
    56 HAM         33.7995    36.4941   -11.4894 H            1 VFV580   0.0000
    57 HAQ         32.8430    36.5526    -9.3023 H            1 VFV580   0.0000
    58 HAL         30.7948    38.9824   -12.8765 H            1 VFV580   0.0000
    59 HAP         29.8535    39.0645   -10.6772 H            1 VFV580   0.0000
    60 HAI         32.0380    35.3997    -5.9266 H            1 VFV580   0.0000
    61 HAF         32.1126    34.1376    -3.9001 H            1 VFV580   0.0000
    62 HAD         30.4232    34.4434    -2.2340 H            1 VFV580   0.0000
    63 HAE         28.6517    36.0004    -2.6064 H            1 VFV580   0.0000
    64 HAH         28.5747    37.2632    -4.6362 H            1 VFV580   0.0000
@<TRIPOS>BOND
     1    1    2      ar
     2    1    7      ar
     3    2    3      ar
     4    3    4       1
     5    3    5      ar
     6    5    6      ar
     7    6    7      ar
     8    7    8       1
     9    8    9      ar
    10    8   12      ar
    11    9   10      ar
    12   10   11       1
    13   10   14      ar
    14   12   13      ar
    15   13   14      ar
    16   14   15       1
    17   15   16       1
    18   15   22       1
    19   16   17       1
    20   17   18       1
    21   17   21       1
    22   18   19       2
    23   19   20       1
    24   20   21       2
    25   22   23      am
    26   23   24       2
    27   23   25       1
    28   25   26      ar
    29   25   28      ar
    30   26   27      ar
    31   27   30      ar
    32   28   29      ar
    33   29   30      ar
    34   30   31       1
    35   31   32       1
    36   31   33       2
    37   32   35       1
    38   33   34       1
    39   34   35       2
    40   35   36       1
    41   36   37      ar
    42   36   41      ar
    43   37   38      ar
    44   38   39      ar
    45   39   40      ar
    46   40   41      ar
    47    1   42       1
    48    2   43       1
    49    5   44       1
    50    6   45       1
    51    9   46       1
    52   12   47       1
    53   13   48       1
    54   15   49       1
    55   16   50       1
    56   16   51       1
    57   18   52       1
    58   19   53       1
    59   21   54       1
    60   22   55       1
    61   26   56       1
    62   27   57       1
    63   28   58       1
    64   29   59       1
    65   37   60       1
    66   38   61       1
    67   39   62       1
    68   40   63       1
    69   41   64       1
@<TRIPOS>SUBSTRUCTURE
     1 VFV580      1 GROUP             4 D     VFV     0 **** VFV D 580
