@<TRIPOS>MOLECULE
3tif_ADP_1_ligand
   39    41     1     0     0
SMALL
NO_CHARGES


@<TRIPOS>ATOM
     1 PB          30.6760     4.8350   -12.9890 P.3          1 ADP236   0.0000
     2 O1B         29.9120     5.3370   -14.1710 O.co2        1 ADP236   0.0000
     3 O2B         29.7150     4.1720   -12.0200 O.co2        1 ADP236  -1.0000
     4 O3B         31.3610     5.9480   -12.2680 O.co2        1 ADP236  -1.0000
     5 PA          31.8660     3.5110   -14.9890 P.3          1 ADP236   0.0000
     6 O1A         31.5610     2.1790   -15.6540 O.co2        1 ADP236   0.0000
     7 O2A         32.6160     4.5780   -15.8650 O.co2        1 ADP236  -1.0000
     8 O3A         31.7520     3.7610   -13.4400 O.3          1 ADP236   0.0000
     9 O5'         33.2390     2.8070   -14.6770 O.3          1 ADP236   0.0000
    10 C5'         33.3520     1.5620   -14.0700 C.3          1 ADP236   0.0000
    11 C4'         34.7310     0.9910   -13.7970 C.3          1 ADP236   0.0000
    12 O4'         35.3480     0.4240   -14.9360 O.3          1 ADP236   0.0000
    13 C3'         35.6940     1.9810   -13.2020 C.3          1 ADP236   0.0000
    14 O3'         36.3230     1.5480   -12.0290 O.3          1 ADP236   0.0000
    15 C2'         36.6790     2.2090   -14.2200 C.3          1 ADP236   0.0000
    16 O2'         37.9490     2.4900   -13.7070 O.3          1 ADP236   0.0000
    17 C1'         36.6710     0.9710   -15.0570 C.3          1 ADP236   0.0000
    18 N9          36.9860     1.1890   -16.4590 N.pl3        1 ADP236   0.0000
    19 C8          36.2600     1.9240   -17.3250 C.2          1 ADP236   0.0000
    20 N7          36.8500     1.8880   -18.5310 N.2          1 ADP236   0.0000
    21 C5          37.9670     1.1200   -18.4150 C.ar         1 ADP236   0.0000
    22 C6          38.9550     0.7380   -19.3270 C.ar         1 ADP236   0.0000
    23 N6          38.8890     1.1700   -20.6670 N.pl3        1 ADP236   0.0000
    24 N1          39.9660    -0.0440   -18.9220 N.ar         1 ADP236   0.0000
    25 C2          40.0270    -0.4630   -17.6430 C.ar         1 ADP236   0.0000
    26 N3          39.0920    -0.1180   -16.7380 N.ar         1 ADP236   0.0000
    27 C4          38.0590     0.6740   -17.1050 C.ar         1 ADP236   0.0000
    28 H5'1        32.8761     0.9071   -14.6570 H            1 ADP236   0.0000
    29 H5'2        32.8821     1.6231   -13.1894 H            1 ADP236   0.0000
    30 H4'         34.6167     0.2556   -13.1291 H            1 ADP236   0.0000
    31 H3'         35.2107     2.8367   -13.0171 H            1 ADP236   0.0000
    32 H5          35.6325     1.3592   -11.3307 H            1 ADP236   0.0000
    33 H2'         36.3838     2.9796   -14.7848 H            1 ADP236   0.0000
    34 H7          37.9051     3.3129   -13.1405 H            1 ADP236   0.0000
    35 H1'         37.3265     0.3190   -14.6760 H            1 ADP236   0.0000
    36 H9          35.4180     2.4166   -17.1050 H            1 ADP236   0.0000
    37 H10         39.5977     0.8947   -21.3166 H            1 ADP236   0.0000
    38 H11         38.1335     1.7518   -20.9681 H            1 ADP236   0.0000
    39 H12         40.7877    -1.0463   -17.3581 H            1 ADP236   0.0000
@<TRIPOS>BOND
     1    1    2      ar
     2    1    3      ar
     3    1    4      ar
     4    1    8       1
     5    5    6      ar
     6    5    7      ar
     7    5    8       1
     8    5    9       1
     9    9   10       1
    10   10   11       1
    11   11   12       1
    12   11   13       1
    13   12   17       1
    14   13   14       1
    15   13   15       1
    16   15   16       1
    17   15   17       1
    18   17   18       1
    19   18   19       1
    20   18   27       1
    21   19   20       2
    22   20   21       1
    23   21   22      ar
    24   21   27      ar
    25   22   23       1
    26   22   24      ar
    27   24   25      ar
    28   25   26      ar
    29   26   27      ar
    30   25   39       1
    31   23   38       1
    32   23   37       1
    33   10   28       1
    34   10   29       1
    35   11   30       1
    36   13   31       1
    37   14   32       1
    38   15   33       1
    39   16   34       1
    40   17   35       1
    41   19   36       1
@<TRIPOS>SUBSTRUCTURE
     1 ADP236      1 GROUP             4 A     ADP     0 **** ADP A 236
