@<TRIPOS>MOLECULE
1kf0_ACP_1_ligand
   45    47     1     0     0
SMALL
NO_CHARGES


@<TRIPOS>ATOM
     1 PG           9.5650    -0.7210    24.4990 P.3          1 ACP418   0.0000
     2 O1G          9.5580    -1.9430    25.3310 O.co2        1 ACP418   0.0000
     3 O2G          8.2190    -0.1530    24.2760 O.co2        1 ACP418  -1.0000
     4 O3G         10.5680     0.2770    24.9220 O.co2        1 ACP418  -1.0000
     5 PB           9.7390    -0.1940    21.4120 P.3          1 ACP418   0.0000
     6 O1B          8.6580    -0.8620    20.6200 O.co2        1 ACP418   0.0000
     7 O2B         11.0430     0.1630    20.7530 O.co2        1 ACP418  -1.0000
     8 C3B         10.1320    -1.2880    22.8410 C.3          1 ACP418   0.0000
     9 PA           9.4590     2.6690    21.9500 P.3          1 ACP418   0.0000
    10 O1A         10.7040     2.9020    22.6890 O.co2        1 ACP418   0.0000
    11 O2A          9.3130     3.1580    20.5720 O.co2        1 ACP418  -1.0000
    12 O3A          9.1310     1.1160    21.9790 O.3          1 ACP418   0.0000
    13 O5'          8.2720     3.2090    22.8060 O.3          1 ACP418   0.0000
    14 C5'          6.8950     3.1420    22.3850 C.3          1 ACP418   0.0000
    15 C4'          6.0380     2.8650    23.5820 C.3          1 ACP418   0.0000
    16 O4'          6.1960     3.9950    24.4600 O.3          1 ACP418   0.0000
    17 C3'          4.5590     2.7680    23.2980 C.3          1 ACP418   0.0000
    18 O3'          4.1120     1.4180    23.5260 O.3          1 ACP418   0.0000
    19 C2'          3.9210     3.7810    24.2320 C.3          1 ACP418   0.0000
    20 O2'          2.8200     3.2690    24.9720 O.3          1 ACP418   0.0000
    21 C1'          5.0270     4.1220    25.2540 C.3          1 ACP418   0.0000
    22 N9           4.9600     5.5180    25.7800 N.pl3        1 ACP418   0.0000
    23 C8           4.8440     6.7060    25.0930 C.2          1 ACP418   0.0000
    24 N7           4.8110     7.7710    25.8340 N.2          1 ACP418   0.0000
    25 C5           4.9120     7.2540    27.1120 C.ar         1 ACP418   0.0000
    26 C6           4.9370     7.8660    28.4010 C.ar         1 ACP418   0.0000
    27 N6           4.8530     9.1810    28.5340 N.pl3        1 ACP418   0.0000
    28 N1           5.0480     7.0740    29.5010 N.ar         1 ACP418   0.0000
    29 C2           5.1320     5.7460    29.3510 C.ar         1 ACP418   0.0000
    30 N3           5.1200     5.0430    28.2000 N.ar         1 ACP418   0.0000
    31 C4           5.0060     5.8800    27.0980 C.ar         1 ACP418   0.0000
    32 H3B1         9.7118    -2.1783    22.6654 H            1 ACP418   0.0000
    33 H3B2        11.1260    -1.3904    22.8796 H            1 ACP418   0.0000
    34 H5'1         6.7837     2.4083    21.7147 H            1 ACP418   0.0000
    35 H5'2         6.6265     4.0130    21.9735 H            1 ACP418   0.0000
    36 H4'          6.3516     2.0328    24.0393 H            1 ACP418   0.0000
    37 H3'          4.3806     3.0261    22.3485 H            1 ACP418   0.0000
    38 H7           3.1319     1.3551    23.3375 H            1 ACP418   0.0000
    39 H2'          3.6500     4.5996    23.7256 H            1 ACP418   0.0000
    40 H9           2.7601     3.7423    25.8509 H            1 ACP418   0.0000
    41 H1'          5.0336     3.4603    26.0037 H            1 ACP418   0.0000
    42 H11          4.7892     6.7452    24.0953 H            1 ACP418   0.0000
    43 H12          4.8720     9.5937    29.4447 H            1 ACP418   0.0000
    44 H13          4.7705     9.7612    27.7237 H            1 ACP418   0.0000
    45 H14          5.2133     5.2119    30.1925 H            1 ACP418   0.0000
@<TRIPOS>BOND
     1    1    2      ar
     2    1    3      ar
     3    1    4      ar
     4    1    8       1
     5    5    6      ar
     6    5    7      ar
     7    5    8       1
     8    5   12       1
     9    9   10      ar
    10    9   11      ar
    11    9   12       1
    12    9   13       1
    13   13   14       1
    14   14   15       1
    15   15   16       1
    16   15   17       1
    17   16   21       1
    18   17   18       1
    19   17   19       1
    20   19   20       1
    21   19   21       1
    22   21   22       1
    23   22   23       1
    24   22   31       1
    25   23   24       2
    26   24   25       1
    27   25   26      ar
    28   25   31      ar
    29   26   27       1
    30   26   28      ar
    31   28   29      ar
    32   29   30      ar
    33   30   31      ar
    34   29   45       1
    35   27   44       1
    36   27   43       1
    37    8   32       1
    38    8   33       1
    39   23   42       1
    40   14   34       1
    41   14   35       1
    42   15   36       1
    43   17   37       1
    44   18   38       1
    45   19   39       1
    46   20   40       1
    47   21   41       1
@<TRIPOS>SUBSTRUCTURE
     1 ACP418      1 GROUP             4 A     ACP     0 **** ACP A 418
