@<TRIPOS>MOLECULE
3hpy_MCT_2_ligand
   16    16     1     0     0
SMALL
NO_CHARGES


@<TRIPOS>ATOM
     1 C1         -14.4360   -42.0810    -5.8790 C.ar         1 MCT311   0.0000
     2 C2         -15.0840   -40.8250    -5.9110 C.ar         1 MCT311   0.0000
     3 C3         -15.4320   -40.1880    -4.6950 C.ar         1 MCT311   0.0000
     4 O3         -16.0520   -38.9950    -4.7300 O.3          1 MCT311  -1.0000
     5 C4         -15.1290   -40.8030    -3.4410 C.ar         1 MCT311   0.0000
     6 O4         -15.4730   -40.1710    -2.2740 O.3          1 MCT311   0.0000
     7 C5         -14.4700   -42.0700    -3.4170 C.ar         1 MCT311   0.0000
     8 C6         -14.1280   -42.7010    -4.6400 C.ar         1 MCT311   0.0000
     9 C          -14.0730   -42.7620    -7.1720 C.3          1 MCT311   0.0000
    10 H1         -15.2951   -40.3894    -6.7860 H            1 MCT311   0.0000
    11 H2         -15.2632   -40.5971    -1.3940 H            1 MCT311   0.0000
    12 H3         -14.2516   -42.5084    -2.5451 H            1 MCT311   0.0000
    13 H4         -13.6670   -43.5883    -4.6294 H            1 MCT311   0.0000
    14 H5         -13.6247   -43.6339    -6.9751 H            1 MCT311   0.0000
    15 H6         -14.9021   -42.9266    -7.7062 H            1 MCT311   0.0000
    16 H7         -13.4511   -42.1777    -7.6933 H            1 MCT311   0.0000
@<TRIPOS>BOND
     1    1    2      ar
     2    1    8      ar
     3    1    9       1
     4    2    3      ar
     5    3    4       1
     6    3    5      ar
     7    5    6       1
     8    5    7      ar
     9    7    8      ar
    10    2   10       1
    11    9   16       1
    12    6   11       1
    13    7   12       1
    14    8   13       1
    15    9   14       1
    16    9   15       1
@<TRIPOS>SUBSTRUCTURE
     1 MCT311      1 GROUP             4 B     MCT     0 **** MCT B 311
