@<TRIPOS>MOLECULE
5es7_FON_1_ligand
   55    57     1     0     0
SMALL
NO_CHARGES


@<TRIPOS>ATOM
     1 N1         178.3300    36.1130    -0.1580 N.2          1 FON701   0.0000
     2 C2         179.5250    36.6500    -0.4150 C.2          1 FON701   0.0000
     3 NA2        179.8780    37.0370    -1.7710 N.pl3        1 FON701   0.0000
     4 N3         180.4350    36.8730     0.5390 N.pl3        1 FON701   0.0000
     5 C4         180.1960    36.5540     1.8070 C.2          1 FON701   0.0000
     6 O4         181.0210    36.7560     2.6300 O.2          1 FON701   0.0000
     7 C4A        178.9500    35.9810     2.1170 C.2          1 FON701   0.0000
     8 N5         178.5820    35.5920     3.4690 N.am         1 FON701   0.0000
     9 C6         177.6310    34.5560     3.6130 C.3          1 FON701   0.0000
    10 C7         176.3830    34.8380     2.8020 C.3          1 FON701   0.0000
    11 N8         176.6450    35.1270     1.3890 N.pl3        1 FON701   0.0000
    12 C8A        178.0130    35.7670     1.0890 C.2          1 FON701   0.0000
    13 C9         178.2930    33.2080     3.1360 C.3          1 FON701   0.0000
    14 N10        177.4010    32.0780     3.3380 N.pl3        1 FON701   0.0000
    15 C11        178.2490    28.4870     1.2920 C.ar         1 FON701   0.0000
    16 C12        178.1100    29.6680     0.5830 C.ar         1 FON701   0.0000
    17 C13        177.8300    30.8470     1.2540 C.ar         1 FON701   0.0000
    18 C14        177.6850    30.8390     2.6320 C.ar         1 FON701   0.0000
    19 C15        177.8230    29.6580     3.3370 C.ar         1 FON701   0.0000
    20 C16        178.1050    28.4790     2.6690 C.ar         1 FON701   0.0000
    21 C          178.5550    27.1770     0.5630 C.2          1 FON701   0.0000
    22 O          177.7870    26.7480    -0.2300 O.2          1 FON701   0.0000
    23 N          179.7900    26.4610     0.8480 N.am         1 FON701   0.0000
    24 CA         180.0750    25.2110     0.1610 C.3          1 FON701   0.0000
    25 CB         181.2080    25.4080    -0.8470 C.3          1 FON701   0.0000
    26 CG         180.9490    24.6500    -2.1530 C.3          1 FON701   0.0000
    27 CD         180.7710    25.5860    -3.3480 C.2          1 FON701   0.0000
    28 OE1        181.4960    26.6090    -3.4630 O.co2        1 FON701   0.0000
    29 OE2        179.8920    25.3310    -4.2140 O.co2        1 FON701  -1.0000
    30 CT         180.4660    24.1450     1.1860 C.2          1 FON701   0.0000
    31 O1         180.4270    22.9260     0.8640 O.co2        1 FON701   0.0000
    32 O2         180.8140    24.4730     2.3530 O.co2        1 FON701  -1.0000
    33 CP1        179.1490    36.2470     4.6370 C.2          1 FON701   0.0000
    34 O3         178.8230    35.9040     5.7250 O.2          1 FON701   0.0000
    35 HA21       180.7742    37.4389    -1.9590 H            1 FON701   0.0000
    36 HA22       179.2247    36.9013    -2.5158 H            1 FON701   0.0000
    37 H3         177.3816    34.4736     4.5779 H            1 FON701   0.0000
    38 H4         175.9182    35.6270     3.2037 H            1 FON701   0.0000
    39 H5         175.7861    34.0373     2.8541 H            1 FON701   0.0000
    40 H6         175.9812    34.9226     0.6696 H            1 FON701   0.0000
    41 H7         179.1333    33.0562     3.6565 H            1 FON701   0.0000
    42 H8         178.5120    33.2797     2.1629 H            1 FON701   0.0000
    43 H9         176.6116    32.1510     3.9475 H            1 FON701   0.0000
    44 H10        178.2116    29.6699    -0.4118 H            1 FON701   0.0000
    45 H11        177.7327    31.7022     0.7449 H            1 FON701   0.0000
    46 H12        177.7189    29.6554     4.3316 H            1 FON701   0.0000
    47 H13        178.2044    27.6246     3.1790 H            1 FON701   0.0000
    48 H14        180.4401    26.8272     1.5137 H            1 FON701   0.0000
    49 HA         179.2541    24.9111    -0.3250 H            1 FON701   0.0000
    50 HB1        182.0607    25.0757    -0.4440 H            1 FON701   0.0000
    51 HB2        181.2935    26.3833    -1.0508 H            1 FON701   0.0000
    52 HG1        180.1182    24.1035    -2.0472 H            1 FON701   0.0000
    53 HG2        181.7251    24.0454    -2.3321 H            1 FON701   0.0000
    54 HP1        179.8131    36.9859     4.5233 H            1 FON701   0.0000
    55 H21        181.3115    37.2874     0.2940 H            1 FON701   0.0000
@<TRIPOS>BOND
     1    1    2       2
     2    1   12       1
     3    2    3       1
     4    2    4       1
     5    4    5       1
     6    5    6       2
     7    5    7       1
     8    7    8       1
     9    7   12       2
    10    8    9       1
    11    8   33      am
    12    9   10       1
    13    9   13       1
    14   10   11       1
    15   11   12       1
    16   13   14       1
    17   14   18       1
    18   15   16      ar
    19   15   20      ar
    20   15   21       1
    21   16   17      ar
    22   17   18      ar
    23   18   19      ar
    24   19   20      ar
    25   21   22       2
    26   21   23      am
    27   23   24       1
    28   24   25       1
    29   24   30       1
    30   25   26       1
    31   26   27       1
    32   27   28      ar
    33   27   29      ar
    34   30   31      ar
    35   30   32      ar
    36   33   34       2
    37   33   54       1
    38    3   35       1
    39    3   36       1
    40    9   37       1
    41   10   38       1
    42   10   39       1
    43   11   40       1
    44   13   41       1
    45   13   42       1
    46   14   43       1
    47   16   44       1
    48   17   45       1
    49   19   46       1
    50   20   47       1
    51   23   48       1
    52   24   49       1
    53   25   50       1
    54   25   51       1
    55   26   52       1
    56   26   53       1
    57    4   55       1
@<TRIPOS>SUBSTRUCTURE
     1 FON701      1 GROUP             4 A     FON     0 **** FON A 701
