@<TRIPOS>MOLECULE
1w5a_GTP_1_ligand
   44    46     1     0     0
SMALL
NO_CHARGES


@<TRIPOS>ATOM
     1 PG          53.7550    12.4480    41.8840 P.3          1 GTP500   0.0000
     2 O1G         55.0530    11.9330    42.5500 O.co2        1 GTP500   0.0000
     3 O2G         53.2130    13.6850    42.6340 O.co2        1 GTP500  -1.0000
     4 O3G         52.6560    11.3800    41.9430 O.co2        1 GTP500  -1.0000
     5 O3B         54.1250    12.7780    40.2880 O.3          1 GTP500   0.0000
     6 PB          53.6080    13.9890    39.2990 P.3          1 GTP500   0.0000
     7 O1B         52.2280    14.4020    39.5900 O.co2        1 GTP500   0.0000
     8 O2B         53.9000    13.4840    37.8970 O.co2        1 GTP500  -1.0000
     9 O3A         54.5360    15.2110    39.5620 O.3          1 GTP500   0.0000
    10 PA          54.4640    16.7010    39.1190 P.3          1 GTP500   0.0000
    11 O1A         53.8980    17.5230    40.2320 O.co2        1 GTP500   0.0000
    12 O2A         53.8860    16.8240    37.7890 O.co2        1 GTP500  -1.0000
    13 O5'         56.0600    17.0740    39.1350 O.3          1 GTP500   0.0000
    14 C5'         56.9690    16.6860    38.1110 C.3          1 GTP500   0.0000
    15 C4'         57.8630    17.8540    37.7280 C.3          1 GTP500   0.0000
    16 O4'         57.0720    18.8440    37.0470 O.3          1 GTP500   0.0000
    17 C3'         58.4950    18.5870    38.9210 C.3          1 GTP500   0.0000
    18 O3'         59.7530    18.0080    39.2300 O.3          1 GTP500   0.0000
    19 C2'         58.7060    20.0000    38.3640 C.3          1 GTP500   0.0000
    20 O2'         59.8640    20.0210    37.5310 O.3          1 GTP500   0.0000
    21 C1'         57.5140    20.1400    37.4140 C.3          1 GTP500   0.0000
    22 N9          56.3840    20.9160    37.9280 N.pl3        1 GTP500   0.0000
    23 C8          55.6160    20.6520    39.0600 C.2          1 GTP500   0.0000
    24 N7          54.6970    21.5650    39.2700 N.2          1 GTP500   0.0000
    25 C5          54.6230    22.2260    38.0590 C.2          1 GTP500   0.0000
    26 C6          53.6760    23.1310    37.5350 C.2          1 GTP500   0.0000
    27 O6          52.6430    23.5320    38.0690 O.2          1 GTP500   0.0000
    28 N1          53.9880    23.5450    36.2260 N.pl3        1 GTP500   0.0000
    29 C2          55.0540    23.0640    35.4650 C.2          1 GTP500   0.0000
    30 N2          55.2110    23.5580    34.2590 N.pl3        1 GTP500   0.0000
    31 N3          55.9650    22.2520    35.9530 N.2          1 GTP500   0.0000
    32 C4          55.6620    21.8010    37.2020 C.2          1 GTP500   0.0000
    33 H5'1        56.4532    16.3882    37.3077 H            1 GTP500   0.0000
    34 H5'2        57.5358    15.9315    38.4417 H            1 GTP500   0.0000
    35 H4'         58.5860    17.5309    37.1174 H            1 GTP500   0.0000
    36 H3'         57.8867    18.5912    39.7147 H            1 GTP500   0.0000
    37 H5          60.3555    18.7064    39.6164 H            1 GTP500   0.0000
    38 H2'         58.7234    20.7023    39.0757 H            1 GTP500   0.0000
    39 H7          60.6681    20.2407    38.0834 H            1 GTP500   0.0000
    40 H1'         57.8401    20.5941    36.5849 H            1 GTP500   0.0000
    41 H9          55.7503    19.8543    39.6480 H            1 GTP500   0.0000
    42 H10         53.3997    24.2379    35.8091 H            1 GTP500   0.0000
    43 H11         55.9631    23.2393    33.6821 H            1 GTP500   0.0000
    44 H12         54.5785    24.2530    33.9171 H            1 GTP500   0.0000
@<TRIPOS>BOND
     1    1    2      ar
     2    1    3      ar
     3    1    4      ar
     4    1    5       1
     5    5    6       1
     6    6    7      ar
     7    6    8      ar
     8    6    9       1
     9    9   10       1
    10   10   11      ar
    11   10   12      ar
    12   10   13       1
    13   13   14       1
    14   14   15       1
    15   15   16       1
    16   15   17       1
    17   16   21       1
    18   17   18       1
    19   17   19       1
    20   19   20       1
    21   19   21       1
    22   21   22       1
    23   22   23       1
    24   22   32       1
    25   23   24       2
    26   24   25       1
    27   25   26       1
    28   25   32       2
    29   26   27       2
    30   26   28       1
    31   28   29       1
    32   29   30       1
    33   29   31       2
    34   31   32       1
    35   30   44       1
    36   30   43       1
    37   28   42       1
    38   23   41       1
    39   14   33       1
    40   14   34       1
    41   15   35       1
    42   17   36       1
    43   18   37       1
    44   19   38       1
    45   20   39       1
    46   21   40       1
@<TRIPOS>SUBSTRUCTURE
     1 GTP500      1 GROUP             4 A     GTP     0 **** GTP A 500
