@<TRIPOS>MOLECULE
2xwe_AMF_1_ligand
   50    51     1     0     0
SMALL
NO_CHARGES


@<TRIPOS>ATOM
     1 O4         -35.7090   -14.5450    -2.9030 O.3          1 AMF1510   0.0000
     2 C4         -35.9380   -15.5770    -1.9090 C.3          1 AMF1510   0.0000
     3 C5         -34.6250   -16.0380    -1.3540 C.3          1 AMF1510   0.0000
     4 C6         -33.8070   -14.7370    -1.1140 C.3          1 AMF1510   0.0000
     5 S1         -33.0480   -15.0630     0.4950 S.3          1 AMF1510   0.0000
     6 C3         -36.6470   -16.7810    -2.4550 C.3          1 AMF1510   0.0000
     7 O3         -37.8770   -16.3460    -2.9790 O.3          1 AMF1510   0.0000
     8 C2         -37.0060   -17.7410    -1.2990 C.3          1 AMF1510   0.0000
     9 O2         -37.2050   -19.0260    -1.8390 O.3          1 AMF1510   0.0000
    10 C1         -35.9760   -17.8110    -0.1170 C.3          1 AMF1510   0.0000
    11 O1         -36.7490   -17.4980     1.0430 O.3          1 AMF1510   0.0000
    12 N1         -34.9210   -16.7770    -0.0770 N.pl3        1 AMF1510   0.0000
    13 C7         -34.1510   -16.2930     1.0180 C.2          1 AMF1510   0.0000
    14 N2         -34.2080   -16.7110     2.2500 N.2          1 AMF1510   0.0000
    15 C8         -35.2200   -17.7910     2.4530 C.3          1 AMF1510   0.0000
    16 C9         -35.1160   -18.5980     3.7350 C.3          1 AMF1510   0.0000
    17 C10        -35.5690   -17.7350     4.9240 C.3          1 AMF1510   0.0000
    18 C11        -34.3570   -17.1070     5.6440 C.3          1 AMF1510   0.0000
    19 C12        -34.4900   -17.2600     7.1850 C.3          1 AMF1510   0.0000
    20 C13        -35.8200   -16.6500     7.6880 C.3          1 AMF1510   0.0000
    21 C14        -36.6410   -17.5950     8.5840 C.3          1 AMF1510   0.0000
    22 C15        -37.8910   -16.8470     9.0920 C.3          1 AMF1510   0.0000
    23 H1         -36.4877   -13.9178    -2.9178 H            1 AMF1510   0.0000
    24 H2         -36.4842   -15.1918    -1.1652 H            1 AMF1510   0.0000
    25 H3         -34.1563   -16.6341    -2.0059 H            1 AMF1510   0.0000
    26 H4         -34.4025   -13.9344    -1.0791 H            1 AMF1510   0.0000
    27 H5         -33.1140   -14.6073    -1.8232 H            1 AMF1510   0.0000
    28 H6         -36.0974   -17.2413    -3.1522 H            1 AMF1510   0.0000
    29 H7         -37.7858   -15.4057    -3.3070 H            1 AMF1510   0.0000
    30 H8         -37.8793   -17.4376    -0.9178 H            1 AMF1510   0.0000
    31 H9         -36.3668   -19.3311    -2.2910 H            1 AMF1510   0.0000
    32 H10        -35.5799   -18.7263    -0.0441 H            1 AMF1510   0.0000
    33 H11        -37.4831   -18.1693     1.1455 H            1 AMF1510   0.0000
    34 H12        -35.1388   -18.4289     1.6871 H            1 AMF1510   0.0000
    35 H13        -36.1243   -17.3644     2.4371 H            1 AMF1510   0.0000
    36 H14        -34.1676   -18.8834     3.8729 H            1 AMF1510   0.0000
    37 H15        -35.7010   -19.4063     3.6681 H            1 AMF1510   0.0000
    38 H16        -36.0730   -18.3076     5.5706 H            1 AMF1510   0.0000
    39 H17        -36.1654   -17.0051     4.5900 H            1 AMF1510   0.0000
    40 H18        -34.3067   -16.1351     5.4142 H            1 AMF1510   0.0000
    41 H19        -33.5217   -17.5650     5.3400 H            1 AMF1510   0.0000
    42 H20        -33.7263   -16.7902     7.6277 H            1 AMF1510   0.0000
    43 H21        -34.4656   -18.2315     7.4208 H            1 AMF1510   0.0000
    44 H22        -36.3760   -16.4082     6.8928 H            1 AMF1510   0.0000
    45 H23        -35.6095   -15.8241     8.2111 H            1 AMF1510   0.0000
    46 H24        -36.0849   -17.8858     9.3626 H            1 AMF1510   0.0000
    47 H25        -36.9216   -18.3971     8.0568 H            1 AMF1510   0.0000
    48 H26        -38.4294   -17.4553     9.6751 H            1 AMF1510   0.0000
    49 H27        -37.6086   -16.0448     9.6180 H            1 AMF1510   0.0000
    50 H28        -38.4452   -16.5561     8.3121 H            1 AMF1510   0.0000
@<TRIPOS>BOND
     1    1    2       1
     2    2    3       1
     3    2    6       1
     4    3    4       1
     5    3   12       1
     6    4    5       1
     7    5   13       1
     8    6    7       1
     9    6    8       1
    10    8    9       1
    11    8   10       1
    12   10   11       1
    13   10   12       1
    14   12   13       1
    15   13   14       2
    16   14   15       1
    17   15   16       1
    18   16   17       1
    19   17   18       1
    20   18   19       1
    21   19   20       1
    22   20   21       1
    23   21   22       1
    24    1   23       1
    25    2   24       1
    26    3   25       1
    27    4   26       1
    28    4   27       1
    29    6   28       1
    30    7   29       1
    31    8   30       1
    32    9   31       1
    33   10   32       1
    34   11   33       1
    35   15   34       1
    36   15   35       1
    37   16   36       1
    38   16   37       1
    39   17   38       1
    40   17   39       1
    41   18   40       1
    42   18   41       1
    43   19   42       1
    44   19   43       1
    45   20   44       1
    46   20   45       1
    47   21   46       1
    48   21   47       1
    49   22   48       1
    50   22   49       1
    51   22   50       1
@<TRIPOS>SUBSTRUCTURE
     1 AMF1510     1 GROUP             4 A     AMF     0 **** AMF A1510
