@<TRIPOS>MOLECULE
5f2k_SAH_1_ligand
   46    48     1     0     0
SMALL
NO_CHARGES


@<TRIPOS>ATOM
     1 N          -21.5560    -3.2870   -31.9000 N.4          1 SAH400   1.0000
     2 CA         -20.4620    -2.8150   -31.0380 C.3          1 SAH400   0.0000
     3 CB         -19.2570    -3.7670   -31.1360 C.3          1 SAH400   0.0000
     4 CG         -18.5490    -3.7510   -32.4970 C.3          1 SAH400   0.0000
     5 SD         -16.9770    -4.5730   -32.3800 S.3          1 SAH400   0.0000
     6 C          -20.0970    -1.3890   -31.3530 C.2          1 SAH400   0.0000
     7 O          -20.7280    -0.7300   -32.1850 O.co2        1 SAH400   0.0000
     8 OXT        -19.1600    -0.8350   -30.7660 O.co2        1 SAH400  -1.0000
     9 C5'        -17.1090    -5.8240   -33.6230 C.3          1 SAH400   0.0000
    10 C4'        -17.7520    -7.0990   -33.0730 C.3          1 SAH400   0.0000
    11 O4'        -18.1890    -7.9250   -34.1630 O.3          1 SAH400   0.0000
    12 C3'        -16.7660    -7.9340   -32.2510 C.3          1 SAH400   0.0000
    13 O3'        -17.3040    -8.2520   -30.9620 O.3          1 SAH400   0.0000
    14 C2'        -16.5930    -9.1970   -33.0720 C.3          1 SAH400   0.0000
    15 O2'        -16.2890   -10.3620   -32.2970 O.3          1 SAH400   0.0000
    16 C1'        -17.9440    -9.2680   -33.7720 C.3          1 SAH400   0.0000
    17 N9         -17.9140   -10.2110   -34.9050 N.pl3        1 SAH400   0.0000
    18 C8         -17.0110   -10.2770   -35.9010 C.2          1 SAH400   0.0000
    19 N7         -17.3100   -11.3000   -36.7430 N.2          1 SAH400   0.0000
    20 C5         -18.4130   -11.9040   -36.2630 C.ar         1 SAH400   0.0000
    21 C6         -19.2670   -13.0410   -36.6520 C.ar         1 SAH400   0.0000
    22 N6         -18.9730   -13.7680   -37.7520 N.pl3        1 SAH400   0.0000
    23 N1         -20.3390   -13.3260   -35.8700 N.ar         1 SAH400   0.0000
    24 C2         -20.6360   -12.6170   -34.7650 C.ar         1 SAH400   0.0000
    25 N3         -19.9000   -11.5680   -34.3540 N.ar         1 SAH400   0.0000
    26 C4         -18.8060   -11.1780   -35.0530 C.ar         1 SAH400   0.0000
    27 H1         -22.4331    -3.0131   -31.5055 H            1 SAH400   0.0000
    28 H2         -21.4600    -2.8850   -32.8106 H            1 SAH400   0.0000
    29 HA         -20.7901    -2.8405   -30.0937 H            1 SAH400   0.0000
    30 HB1        -19.5781    -4.6977   -30.9609 H            1 SAH400   0.0000
    31 HB2        -18.5936    -3.5058   -30.4348 H            1 SAH400   0.0000
    32 HG1        -18.4060    -2.8038   -32.7840 H            1 SAH400   0.0000
    33 HG2        -19.1184    -4.2213   -33.1712 H            1 SAH400   0.0000
    34 H5'1       -16.1940    -6.0423   -33.9622 H            1 SAH400   0.0000
    35 H5'2       -17.6691    -5.4765   -34.3750 H            1 SAH400   0.0000
    36 H4'        -18.5376    -6.8564   -32.5038 H            1 SAH400   0.0000
    37 H3'        -15.8934    -7.4544   -32.1578 H            1 SAH400   0.0000
    38 H12        -18.1490    -8.7750   -31.0733 H            1 SAH400   0.0000
    39 H2'        -15.8741    -9.0544   -33.7523 H            1 SAH400   0.0000
    40 H14        -17.1391   -10.8158   -32.0298 H            1 SAH400   0.0000
    41 H1'        -18.6429    -9.5566   -33.1176 H            1 SAH400   0.0000
    42 H16        -16.2308    -9.6604   -36.0061 H            1 SAH400   0.0000
    43 H17        -19.5549   -14.5385   -38.0124 H            1 SAH400   0.0000
    44 H18        -18.1735   -13.5357   -38.3059 H            1 SAH400   0.0000
    45 H19        -21.4368   -12.8807   -34.2272 H            1 SAH400   0.0000
    46 H20        -21.5188    -4.2838   -31.9701 H            1 SAH400   0.0000
@<TRIPOS>BOND
     1    1    2       1
     2    2    3       1
     3    2    6       1
     4    3    4       1
     5    4    5       1
     6    5    9       1
     7    6    7      ar
     8    6    8      ar
     9    9   10       1
    10   10   11       1
    11   10   12       1
    12   11   16       1
    13   12   13       1
    14   12   14       1
    15   14   15       1
    16   14   16       1
    17   16   17       1
    18   17   18       1
    19   17   26       1
    20   18   19       2
    21   19   20       1
    22   20   21      ar
    23   20   26      ar
    24   21   22       1
    25   21   23      ar
    26   23   24      ar
    27   24   25      ar
    28   25   26      ar
    29    1   27       1
    30    1   28       1
    31    2   29       1
    32    3   30       1
    33    3   31       1
    34    4   32       1
    35    4   33       1
    36    1   46       1
    37    9   34       1
    38    9   35       1
    39   10   36       1
    40   12   37       1
    41   13   38       1
    42   14   39       1
    43   15   40       1
    44   16   41       1
    45   18   42       1
    46   22   43       1
    47   22   44       1
    48   24   45       1
@<TRIPOS>SUBSTRUCTURE
     1 SAH400      1 GROUP             4 A     SAH     0 **** SAH A 400
