@<TRIPOS>MOLECULE
5fpe_3TR_1_ligand
   10    10     1     0     0
SMALL
NO_CHARGES


@<TRIPOS>ATOM
     1 N1          18.2100     8.1120     8.6030 N.2          1 3TR1385   0.0000
     2 N2          17.6020     7.0020     9.0860 N.2          1 3TR1385   0.0000
     3 C3          16.4060     7.4530     9.4090 C.2          1 3TR1385   0.0000
     4 N4          16.2410     8.7450     9.1620 N.pl3        1 3TR1385   0.0000
     5 C5          17.3940     9.1380     8.6510 C.2          1 3TR1385   0.0000
     6 N3A         15.4350     6.6810     9.9450 N.pl3        1 3TR1385   0.0000
     7 H1          17.6098    10.0668     8.3497 H            1 3TR1385   0.0000
     8 H3A1        14.5460     7.0800    10.1698 H            1 3TR1385   0.0000
     9 H3A2        15.6054     5.7107    10.1169 H            1 3TR1385   0.0000
    10 H4          15.4249     9.2991     9.3261 H            1 3TR1385   0.0000
@<TRIPOS>BOND
     1    1    2       1
     2    1    5       2
     3    2    3       2
     4    3    4       1
     5    3    6       1
     6    4    5       1
     7    6    9       1
     8    5    7       1
     9    6    8       1
    10    4   10       1
@<TRIPOS>SUBSTRUCTURE
     1 3TR1385     1 GROUP             4 A     3TR     0 **** 3TR A1385
