@<TRIPOS>MOLECULE
4fpy_0V8_1_ligand
   27    27     1     0     0
SMALL
NO_CHARGES


@<TRIPOS>ATOM
     1 CAE          7.3440    -8.2280    39.6970 C.ar         1 0V8701   0.0000
     2 CAF          6.6180    -7.3810    40.5530 C.ar         1 0V8701   0.0000
     3 CAG          7.3050    -8.0090    38.3240 C.ar         1 0V8701   0.0000
     4 CAH          5.8340    -6.1080    38.6630 C.ar         1 0V8701   0.0000
     5 CAI          4.8270    -6.2440    34.5650 C.3          1 0V8701   0.0000
     6 CAJ          3.5310    -6.6690    33.8730 C.3          1 0V8701   0.0000
     7 CAK          6.4610    -6.6640    36.3250 C.3          1 0V8701   0.0000
     8 CAM          5.8710    -6.3380    40.0400 C.ar         1 0V8701   0.0000
     9 CAN          6.5550    -6.9330    37.8170 C.ar         1 0V8701   0.0000
    10 NAL          5.1130    -6.9620    35.8190 N.4          1 0V8701   1.0000
    11 OAA          2.6590    -4.2790    33.3800 O.co2        1 0V8701   0.0000
    12 OAB          3.9300    -5.3460    31.5930 O.co2        1 0V8701   0.0000
    13 OAC          1.6630    -6.0160    32.0560 O.co2        1 0V8701  -1.0000
    14 SAO          2.9070    -5.5260    32.6660 S.o2         1 0V8701   0.0000
    15 BR           4.8660    -5.1490    41.2070 Br           1 0V8701   0.0000
    16 HAE          7.8838    -8.9815    40.0722 H            1 0V8701   0.0000
    17 HAF          6.6425    -7.5347    41.5408 H            1 0V8701   0.0000
    18 HAG          7.8060    -8.6116    37.7028 H            1 0V8701   0.0000
    19 HAH          5.2917    -5.3543    38.2916 H            1 0V8701   0.0000
    20 HAI1         4.7654    -5.2674    34.7712 H            1 0V8701   0.0000
    21 HAI2         5.5855    -6.4041    33.9333 H            1 0V8701   0.0000
    22 HAJ1         2.8302    -6.7894    34.5761 H            1 0V8701   0.0000
    23 HAJ2         3.6971    -7.5423    33.4150 H            1 0V8701   0.0000
    24 HAK1         7.1243    -7.2395    35.8467 H            1 0V8701   0.0000
    25 HAK2         6.6694    -5.7013    36.1526 H            1 0V8701   0.0000
    26 HAL1         5.0400    -7.9454    35.6526 H            1 0V8701   0.0000
    27 HAL2         4.4413    -6.6898    36.5080 H            1 0V8701   0.0000
@<TRIPOS>BOND
     1    1    2      ar
     2    1    3      ar
     3    2    8      ar
     4    3    9      ar
     5    4    8      ar
     6    4    9      ar
     7    5    6       1
     8    5   10       1
     9    6   14       1
    10    7    9       1
    11    7   10       1
    12    8   15       1
    13   11   14      ar
    14   12   14      ar
    15   13   14      ar
    16    1   16       1
    17    2   17       1
    18    3   18       1
    19    4   19       1
    20    5   20       1
    21    5   21       1
    22    6   22       1
    23    6   23       1
    24    7   24       1
    25    7   25       1
    26   10   26       1
    27   10   27       1
@<TRIPOS>SUBSTRUCTURE
     1 0V8701      1 GROUP             4 A     0V8     0 **** 0V8 A 701
