@<TRIPOS>MOLECULE
3qnl_ROA_1_ligand
   41    42     1     0     0
SMALL
NO_CHARGES


@<TRIPOS>ATOM
     1 CAU         -0.9820    21.1490   -14.3980 C.ar         1 ROA205   0.0000
     2 CAV         -1.2520    19.9000   -13.8660 C.ar         1 ROA205   0.0000
     3 OAY         -2.1060    19.7610   -12.8240 O.3          1 ROA205   0.0000
     4 CAW         -0.7390    18.6970   -14.4110 C.ar         1 ROA205   0.0000
     5 OAZ         -1.1230    17.5720   -13.7530 O.3          1 ROA205   0.0000
     6 CAX          0.1310    18.7180   -15.5060 C.ar         1 ROA205   0.0000
     7 CAT          0.3480    19.9540   -16.0330 C.ar         1 ROA205   0.0000
     8 CAS         -0.1560    21.1780   -15.5130 C.ar         1 ROA205   0.0000
     9 CAO          0.1370    22.5640   -16.1160 C.3          1 ROA205   0.0000
    10 CAN          1.4750    23.2140   -15.7570 C.3          1 ROA205   0.0000
    11 CAP          1.5820    24.6620   -16.0420 C.2          1 ROA205   0.0000
    12 OAR          1.1910    25.1730   -17.1510 O.co2        1 ROA205   0.0000
    13 OAQ          2.1410    25.3880   -15.1550 O.co2        1 ROA205  -1.0000
    14 OAM          2.4560    22.6280   -16.6220 O.3          1 ROA205   0.0000
    15 CAK          3.7570    22.9940   -16.1640 C.2          1 ROA205   0.0000
    16 OAL          3.9160    23.9280   -15.3800 O.2          1 ROA205   0.0000
    17 CAJ          4.8690    22.2630   -16.7470 C.2          1 ROA205   0.0000
    18 CAI          6.0600    22.8180   -16.6550 C.2          1 ROA205   0.0000
    19 CAC          6.9680    21.9640   -17.3780 C.ar         1 ROA205   0.0000
    20 CAD          8.0710    21.5840   -16.7430 C.ar         1 ROA205   0.0000
    21 CAE          8.8890    20.7660   -17.4720 C.ar         1 ROA205   0.0000
    22 OAG          9.9810    20.3100   -16.7950 O.3          1 ROA205   0.0000
    23 CAF          8.5620    20.3670   -18.8520 C.ar         1 ROA205   0.0000
    24 OAH          9.4020    19.5690   -19.5010 O.3          1 ROA205   0.0000
    25 CAB          7.4070    20.7950   -19.5150 C.ar         1 ROA205   0.0000
    26 CAA          6.6380    21.6430   -18.7120 C.ar         1 ROA205   0.0000
    27 HAU         -1.3613    21.9847   -14.0008 H            1 ROA205   0.0000
    28 HAY         -2.2930    18.8533   -12.4484 H            1 ROA205   0.0000
    29 HAZ         -0.8083    16.6766   -14.0679 H            1 ROA205   0.0000
    30 HAX          0.5590    17.8917   -15.8721 H            1 ROA205   0.0000
    31 HAT          0.9110    20.0060   -16.8578 H            1 ROA205   0.0000
    32 HAO1        -0.5885    23.1827   -15.8146 H            1 ROA205   0.0000
    33 HAO2         0.1046    22.4721   -17.1112 H            1 ROA205   0.0000
    34 HAN          1.7032    23.0314   -14.8007 H            1 ROA205   0.0000
    35 HAJ          4.7364    21.3799   -17.1970 H            1 ROA205   0.0000
    36 HAI          6.2892    23.6659   -16.1770 H            1 ROA205   0.0000
    37 HAD          8.2853    21.8721   -15.8097 H            1 ROA205   0.0000
    38 HAG         10.6348    19.7054   -17.2499 H            1 ROA205   0.0000
    39 HAH          9.1993    19.2860   -20.4385 H            1 ROA205   0.0000
    40 HAB          7.1619    20.5279   -20.4470 H            1 ROA205   0.0000
    41 HAA          5.8098    22.0435   -19.1041 H            1 ROA205   0.0000
@<TRIPOS>BOND
     1    1    2      ar
     2    1    8      ar
     3    2    3       1
     4    2    4      ar
     5    4    5       1
     6    4    6      ar
     7    6    7      ar
     8    7    8      ar
     9    8    9       1
    10    9   10       1
    11   10   11       1
    12   10   14       1
    13   11   12      ar
    14   11   13      ar
    15   14   15       1
    16   15   16       2
    17   15   17       1
    18   17   18       2
    19   18   19       1
    20   19   20      ar
    21   19   26      ar
    22   20   21      ar
    23   21   22       1
    24   21   23      ar
    25   23   24       1
    26   23   25      ar
    27   25   26      ar
    28    1   27       1
    29    3   28       1
    30    5   29       1
    31    6   30       1
    32    7   31       1
    33    9   32       1
    34    9   33       1
    35   10   34       1
    36   26   41       1
    37   17   35       1
    38   18   36       1
    39   20   37       1
    40   22   38       1
    41   24   39       1
    42   25   40       1
@<TRIPOS>SUBSTRUCTURE
     1 ROA205      1 GROUP             4 A     ROA     0 **** ROA A 205
