@<TRIPOS>MOLECULE
5epe_SAH_1_ligand
   46    48     1     0     0
SMALL
NO_CHARGES


@<TRIPOS>ATOM
     1 N           60.1520    75.7630    32.6920 N.4          1 SAH301   1.0000
     2 CA          61.5680    75.2760    32.8980 C.3          1 SAH301   0.0000
     3 CB          61.8370    75.0350    34.3710 C.3          1 SAH301   0.0000
     4 CG          60.9500    74.0120    35.1040 C.3          1 SAH301   0.0000
     5 SD          61.5960    73.5270    36.6840 S.3          1 SAH301   0.0000
     6 C           61.8840    74.0320    32.0980 C.2          1 SAH301   0.0000
     7 O           60.9530    73.3060    31.7000 O.co2        1 SAH301   0.0000
     8 OXT         63.0610    73.7090    31.8320 O.co2        1 SAH301  -1.0000
     9 C5'         60.9210    74.7120    37.8840 C.3          1 SAH301   0.0000
    10 C4'         61.6510    76.0540    37.7850 C.3          1 SAH301   0.0000
    11 O4'         60.9990    77.0250    38.6160 O.3          1 SAH301   0.0000
    12 C3'         63.1260    76.0100    38.2240 C.3          1 SAH301   0.0000
    13 O3'         63.9270    76.5120    37.1380 O.3          1 SAH301   0.0000
    14 C2'         63.2140    76.9300    39.4450 C.3          1 SAH301   0.0000
    15 O2'         64.4070    77.6990    39.4740 O.3          1 SAH301   0.0000
    16 C1'         62.0430    77.8410    39.1960 C.3          1 SAH301   0.0000
    17 N9          61.4130    78.5450    40.3240 N.pl3        1 SAH301   0.0000
    18 C8          61.0550    78.0140    41.5330 C.2          1 SAH301   0.0000
    19 N7          60.4410    78.9090    42.2750 N.2          1 SAH301   0.0000
    20 C5          60.4040    80.0680    41.4920 C.ar         1 SAH301   0.0000
    21 C6          59.9000    81.3760    41.7210 C.ar         1 SAH301   0.0000
    22 N6          59.2920    81.6920    42.8870 N.pl3        1 SAH301   0.0000
    23 N1          60.0030    82.3110    40.7430 N.ar         1 SAH301   0.0000
    24 C2          60.6180    81.9680    39.5860 C.ar         1 SAH301   0.0000
    25 N3          61.1490    80.7670    39.2800 N.ar         1 SAH301   0.0000
    26 C4          60.9990    79.8430    40.2850 C.ar         1 SAH301   0.0000
    27 H1          59.9909    75.9169    31.7171 H            1 SAH301   0.0000
    28 H2          59.5103    75.0752    33.0314 H            1 SAH301   0.0000
    29 HA          62.1859    75.9998    32.5908 H            1 SAH301   0.0000
    30 HB1         61.7322    75.9115    34.8408 H            1 SAH301   0.0000
    31 HB2         62.7835    74.7232    34.4544 H            1 SAH301   0.0000
    32 HG1         60.8665    73.1964    34.5314 H            1 SAH301   0.0000
    33 HG2         60.0460    74.4167    35.2415 H            1 SAH301   0.0000
    34 H5'1        61.0327    74.3445    38.8073 H            1 SAH301   0.0000
    35 H5'2        59.9488    74.8521    37.6963 H            1 SAH301   0.0000
    36 H4'         61.6107    76.3687    36.8367 H            1 SAH301   0.0000
    37 H3'         63.3970    75.0775    38.4627 H            1 SAH301   0.0000
    38 H12         63.6558    77.4519    36.9305 H            1 SAH301   0.0000
    39 H2'         63.0961    76.4149    40.2940 H            1 SAH301   0.0000
    40 H14         64.4534    78.2732    38.6566 H            1 SAH301   0.0000
    41 H1'         62.3178    78.5228    38.5181 H            1 SAH301   0.0000
    42 H16         61.2360    77.0717    41.8145 H            1 SAH301   0.0000
    43 H17         58.9421    82.6172    43.0338 H            1 SAH301   0.0000
    44 H18         59.1923    81.0004    43.6024 H            1 SAH301   0.0000
    45 H19         60.6852    82.6792    38.8862 H            1 SAH301   0.0000
    46 H20         60.0180    76.6190    33.1912 H            1 SAH301   0.0000
@<TRIPOS>BOND
     1    1    2       1
     2    2    3       1
     3    2    6       1
     4    3    4       1
     5    4    5       1
     6    5    9       1
     7    6    7      ar
     8    6    8      ar
     9    9   10       1
    10   10   11       1
    11   10   12       1
    12   11   16       1
    13   12   13       1
    14   12   14       1
    15   14   15       1
    16   14   16       1
    17   16   17       1
    18   17   18       1
    19   17   26       1
    20   18   19       2
    21   19   20       1
    22   20   21      ar
    23   20   26      ar
    24   21   22       1
    25   21   23      ar
    26   23   24      ar
    27   24   25      ar
    28   25   26      ar
    29    1   27       1
    30    1   28       1
    31    2   29       1
    32    3   30       1
    33    3   31       1
    34    4   32       1
    35    4   33       1
    36    1   46       1
    37    9   34       1
    38    9   35       1
    39   10   36       1
    40   12   37       1
    41   13   38       1
    42   14   39       1
    43   15   40       1
    44   16   41       1
    45   18   42       1
    46   22   43       1
    47   22   44       1
    48   24   45       1
@<TRIPOS>SUBSTRUCTURE
     1 SAH301      1 GROUP             4 A     SAH     0 **** SAH A 301
