@<TRIPOS>MOLECULE
2b58_COA_1_ligand
   80    82     1     0     0
SMALL
NO_CHARGES


@<TRIPOS>ATOM
     1 N1A         32.5880    56.9950    49.1760 N.ar         1 COA172   0.0000
     2 C2A         32.3050    57.0530    47.8640 C.ar         1 COA172   0.0000
     3 N3A         31.1160    56.6870    47.2710 N.ar         1 COA172   0.0000
     4 C4A         30.1630    56.2240    48.1900 C.ar         1 COA172   0.0000
     5 C5A         30.3850    56.1370    49.5500 C.ar         1 COA172   0.0000
     6 C6A         31.6900    56.5530    50.0720 C.ar         1 COA172   0.0000
     7 N6A         31.9810    56.4940    51.3860 N.pl3        1 COA172   0.0000
     8 N7A         29.2550    55.6400    50.1800 N.2          1 COA172   0.0000
     9 C8A         28.4110    55.4550    49.2260 C.2          1 COA172   0.0000
    10 N9A         28.8560    55.7820    47.9720 N.pl3        1 COA172   0.0000
    11 C1B         28.1250    55.7770    46.5170 C.3          1 COA172   0.0000
    12 C2B         27.6020    54.4330    45.9510 C.3          1 COA172   0.0000
    13 O2B         27.8740    54.4350    44.5670 O.3          1 COA172   0.0000
    14 C3B         25.9890    54.3620    46.3180 C.3          1 COA172   0.0000
    15 O3B         25.6620    54.4930    44.8720 O.3          1 COA172   0.0000
    16 P3B         24.8930    53.2370    44.3260 P.3          1 COA172   0.0000
    17 O7A         24.6160    51.9410    45.0200 O.co2        1 COA172   0.0000
    18 O8A         25.1400    53.0810    42.8740 O.co2        1 COA172  -1.0000
    19 O9A         23.6100    54.1470    44.4470 O.co2        1 COA172  -1.0000
    20 C4B         26.0170    55.6520    47.0330 C.3          1 COA172   0.0000
    21 O4B         27.2300    56.4130    47.1950 O.3          1 COA172   0.0000
    22 C5B         24.7840    55.7520    47.8170 C.3          1 COA172   0.0000
    23 O5B         25.4880    56.6690    48.6080 O.3          1 COA172   0.0000
    24 P1A         24.9170    57.1980    49.9790 P.3          1 COA172   0.0000
    25 O1A         26.0470    58.0860    50.1320 O.co2        1 COA172   0.0000
    26 O2A         24.6850    56.1060    51.0340 O.co2        1 COA172  -1.0000
    27 O3A         23.7710    58.2100    49.4790 O.3          1 COA172   0.0000
    28 P2A         23.1440    59.4670    50.0730 P.3          1 COA172   0.0000
    29 O4A         23.5540    60.2910    48.9330 O.co2        1 COA172   0.0000
    30 O5A         23.7010    59.8500    51.3760 O.co2        1 COA172  -1.0000
    31 O6A         21.5980    59.2750    50.1550 O.3          1 COA172   0.0000
    32 CBP         20.0490    59.6040    48.4690 C.3          1 COA172   0.0000
    33 CCP         20.4290    59.9560    49.9480 C.3          1 COA172   0.0000
    34 CDP         21.0760    58.5200    47.8750 C.3          1 COA172   0.0000
    35 CEP         18.6030    59.0690    48.5410 C.3          1 COA172   0.0000
    36 CAP         20.3350    61.0390    47.7470 C.3          1 COA172   0.0000
    37 OAP         20.1910    60.8790    46.2790 O.3          1 COA172   0.0000
    38 C9P         19.3190    62.2610    47.9790 C.2          1 COA172   0.0000
    39 O9P         18.8280    62.9690    48.8400 O.2          1 COA172   0.0000
    40 N8P         19.0030    62.3900    46.6340 N.am         1 COA172   0.0000
    41 C7P         18.0430    63.3820    46.0930 C.3          1 COA172   0.0000
    42 C6P         16.5870    63.1810    46.6160 C.3          1 COA172   0.0000
    43 C5P         16.0420    61.8250    46.2750 C.2          1 COA172   0.0000
    44 O5P         16.2300    61.3180    45.1360 O.2          1 COA172   0.0000
    45 N4P         15.3550    61.1390    47.1800 N.am         1 COA172   0.0000
    46 C3P         14.7170    59.8130    47.1220 C.3          1 COA172   0.0000
    47 C2P         13.3520    60.0160    46.4000 C.3          1 COA172   0.0000
    48 S1P         12.3270    61.5700    46.0390 S.3          1 COA172   0.0000
    49 H2A         33.0255    57.3942    47.2603 H            1 COA172   0.0000
    50 H6A1        31.2969    56.1615    52.0352 H            1 COA172   0.0000
    51 H6A2        32.8811    56.7827    51.7122 H            1 COA172   0.0000
    52 H8A         27.4918    55.0965    49.3891 H            1 COA172   0.0000
    53 H1B         28.5877    56.3442    45.8357 H            1 COA172   0.0000
    54 H2B         28.0819    53.6725    46.3885 H            1 COA172   0.0000
    55 H7          27.0169    54.3506    44.0587 H            1 COA172   0.0000
    56 H3B         25.6511    53.5581    46.8075 H            1 COA172   0.0000
    57 H4B         25.6764    56.1894    46.2615 H            1 COA172   0.0000
    58 H5B1        24.5103    54.9116    48.2848 H            1 COA172   0.0000
    59 H5B2        23.9995    56.1308    47.3260 H            1 COA172   0.0000
    60 HCP1        20.5663    60.9406    50.0560 H            1 COA172   0.0000
    61 HCP2        19.7196    59.6469    50.5814 H            1 COA172   0.0000
    62 HDP1        20.8237    58.3036    46.9319 H            1 COA172   0.0000
    63 HDP2        22.0033    58.8937    47.8945 H            1 COA172   0.0000
    64 HDP3        21.0401    57.6882    48.4289 H            1 COA172   0.0000
    65 HEP1        18.2927    58.8224    47.6229 H            1 COA172   0.0000
    66 HEP2        18.5753    58.2615    49.1303 H            1 COA172   0.0000
    67 HEP3        18.0042    59.7764    48.9165 H            1 COA172   0.0000
    68 HAP         21.2659    61.3369    47.9584 H            1 COA172   0.0000
    69 H21         20.8482    60.2001    45.9516 H            1 COA172   0.0000
    70 H8P         19.4521    61.7736    45.9873 H            1 COA172   0.0000
    71 H7P1        18.0355    63.3053    45.0960 H            1 COA172   0.0000
    72 H7P2        18.3507    64.2968    46.3546 H            1 COA172   0.0000
    73 H6P1        15.9985    63.8770    46.2046 H            1 COA172   0.0000
    74 H6P2        16.5847    63.2879    47.6103 H            1 COA172   0.0000
    75 H4P         15.2523    61.6061    48.0582 H            1 COA172   0.0000
    76 H3P1        14.5709    59.4584    48.0455 H            1 COA172   0.0000
    77 H3P2        15.2898    59.1754    46.6068 H            1 COA172   0.0000
    78 H2P1        12.7238    59.4352    46.9176 H            1 COA172   0.0000
    79 H2P2        13.5037    59.6191    45.4948 H            1 COA172   0.0000
    80 H1P         12.9375    62.3550    45.9341 H            1 COA172   0.0000
@<TRIPOS>BOND
     1    1    2      ar
     2    1    6      ar
     3    2    3      ar
     4    3    4      ar
     5    4    5      ar
     6    4   10       1
     7    5    6      ar
     8    5    8       1
     9    6    7       1
    10    8    9       2
    11    9   10       1
    12   10   11       1
    13   11   12       1
    14   11   21       1
    15   12   13       1
    16   12   14       1
    17   14   15       1
    18   14   20       1
    19   15   16       1
    20   16   17      ar
    21   16   18      ar
    22   16   19      ar
    23   20   21       1
    24   20   22       1
    25   22   23       1
    26   23   24       1
    27   24   25      ar
    28   24   26      ar
    29   24   27       1
    30   27   28       1
    31   28   29      ar
    32   28   30      ar
    33   28   31       1
    34   31   33       1
    35   32   33       1
    36   32   34       1
    37   32   35       1
    38   32   36       1
    39   36   37       1
    40   36   38       1
    41   38   39       2
    42   38   40      am
    43   40   41       1
    44   41   42       1
    45   42   43       1
    46   43   44       2
    47   43   45      am
    48   45   46       1
    49   46   47       1
    50   47   48       1
    51    2   49       1
    52    7   50       1
    53    7   51       1
    54    9   52       1
    55   11   53       1
    56   12   54       1
    57   13   55       1
    58   14   56       1
    59   48   80       1
    60   47   79       1
    61   20   57       1
    62   22   58       1
    63   22   59       1
    64   47   78       1
    65   46   77       1
    66   33   60       1
    67   33   61       1
    68   34   62       1
    69   34   63       1
    70   34   64       1
    71   35   65       1
    72   35   66       1
    73   35   67       1
    74   36   68       1
    75   37   69       1
    76   40   70       1
    77   41   71       1
    78   41   72       1
    79   42   73       1
    80   42   74       1
    81   45   75       1
    82   46   76       1
@<TRIPOS>SUBSTRUCTURE
     1 COA172      1 GROUP             4 A     COA     0 **** COA A 172
