@<TRIPOS>MOLECULE
4kgn_SAH_2_ligand
   46    48     1     0     0
SMALL
NO_CHARGES


@<TRIPOS>ATOM
     1 N            8.0320   -39.8440    -2.3590 N.4          1 SAH201   1.0000
     2 CA           9.0080   -39.5740    -1.2600 C.3          1 SAH201   0.0000
     3 CB           8.3260   -39.8590     0.0590 C.3          1 SAH201   0.0000
     4 CG           7.2760   -38.8210     0.4160 C.3          1 SAH201   0.0000
     5 SD           7.7460   -38.0190     1.8990 S.3          1 SAH201   0.0000
     6 C           10.2300   -40.4590    -1.3570 C.2          1 SAH201   0.0000
     7 O           11.4030   -40.0140    -1.3230 O.co2        1 SAH201   0.0000
     8 OXT         10.0630   -41.6810    -1.4560 O.co2        1 SAH201  -1.0000
     9 C5'          6.2350   -38.0520     2.8690 C.3          1 SAH201   0.0000
    10 C4'          5.3440   -36.8100     2.6560 C.3          1 SAH201   0.0000
    11 O4'          5.9930   -35.6500     3.2150 O.3          1 SAH201   0.0000
    12 C3'          4.9860   -36.4070     1.2150 C.3          1 SAH201   0.0000
    13 O3'          3.8440   -37.0680     0.6210 O.3          1 SAH201   0.0000
    14 C2'          4.6670   -34.9340     1.3910 C.3          1 SAH201   0.0000
    15 O2'          3.3250   -34.6990     1.8990 O.3          1 SAH201   0.0000
    16 C1'          5.6130   -34.5000     2.4750 C.3          1 SAH201   0.0000
    17 N9           6.8540   -33.9020     1.9390 N.pl3        1 SAH201   0.0000
    18 C8           8.0980   -34.3930     2.0390 C.2          1 SAH201   0.0000
    19 N7           9.0080   -33.5560     1.4780 N.2          1 SAH201   0.0000
    20 C5           8.2970   -32.5070     1.0120 C.ar         1 SAH201   0.0000
    21 C6           8.6120   -31.2580     0.3330 C.ar         1 SAH201   0.0000
    22 N6           9.9070   -30.9870     0.0170 N.pl3        1 SAH201   0.0000
    23 N1           7.5910   -30.4220     0.0360 N.ar         1 SAH201   0.0000
    24 C2           6.3100   -30.7220     0.3490 C.ar         1 SAH201   0.0000
    25 N3           5.9440   -31.8670     0.9850 N.ar         1 SAH201   0.0000
    26 C4           6.8850   -32.7560     1.3190 C.ar         1 SAH201   0.0000
    27 H1           8.4649   -39.6610    -3.2417 H            1 SAH201   0.0000
    28 H2           7.7437   -40.8008    -2.3211 H            1 SAH201   0.0000
    29 HA           9.2877   -38.6144    -1.2905 H            1 SAH201   0.0000
    30 HB1          9.0187   -39.8737     0.7801 H            1 SAH201   0.0000
    31 HB2          7.8840   -40.7543     0.0031 H            1 SAH201   0.0000
    32 HG1          6.3914   -39.2695     0.5435 H            1 SAH201   0.0000
    33 HG2          7.2057   -38.1485    -0.3208 H            1 SAH201   0.0000
    34 H5'1         6.4806   -38.1039     3.8370 H            1 SAH201   0.0000
    35 H5'2         5.7119   -38.8652     2.6137 H            1 SAH201   0.0000
    36 H4'          4.4900   -36.9551     3.1557 H            1 SAH201   0.0000
    37 H3'          5.7855   -36.5133     0.6239 H            1 SAH201   0.0000
    38 H12          3.7088   -36.7279    -0.3096 H            1 SAH201   0.0000
    39 H2'          4.8280   -34.4253     0.5452 H            1 SAH201   0.0000
    40 H14          2.8104   -34.1504     1.2400 H            1 SAH201   0.0000
    41 H1'          5.1570   -33.8461     3.0787 H            1 SAH201   0.0000
    42 H16          8.3264   -35.2650     2.4719 H            1 SAH201   0.0000
    43 H17         10.1398   -30.1336    -0.4494 H            1 SAH201   0.0000
    44 H18         10.6262   -31.6412     0.2511 H            1 SAH201   0.0000
    45 H19          5.5953   -30.0684     0.1000 H            1 SAH201   0.0000
    46 H20          7.2343   -39.2509    -2.2496 H            1 SAH201   0.0000
@<TRIPOS>BOND
     1    1    2       1
     2    2    3       1
     3    2    6       1
     4    3    4       1
     5    4    5       1
     6    5    9       1
     7    6    7      ar
     8    6    8      ar
     9    9   10       1
    10   10   11       1
    11   10   12       1
    12   11   16       1
    13   12   13       1
    14   12   14       1
    15   14   15       1
    16   14   16       1
    17   16   17       1
    18   17   18       1
    19   17   26       1
    20   18   19       2
    21   19   20       1
    22   20   21      ar
    23   20   26      ar
    24   21   22       1
    25   21   23      ar
    26   23   24      ar
    27   24   25      ar
    28   25   26      ar
    29    1   27       1
    30    1   28       1
    31    2   29       1
    32    3   30       1
    33    3   31       1
    34    4   32       1
    35    4   33       1
    36    1   46       1
    37    9   34       1
    38    9   35       1
    39   10   36       1
    40   12   37       1
    41   13   38       1
    42   14   39       1
    43   15   40       1
    44   16   41       1
    45   18   42       1
    46   22   43       1
    47   22   44       1
    48   24   45       1
@<TRIPOS>SUBSTRUCTURE
     1 SAH201      1 GROUP             4 C     SAH     0 **** SAH C 201
