@<TRIPOS>MOLECULE
3sl2_ATP_1_ligand
   43    45     1     0     0
SMALL
NO_CHARGES


@<TRIPOS>ATOM
     1 PG         -15.0420    20.0650    -9.2960 P.3          1 ATP703   0.0000
     2 O1G        -15.8960    19.2350    -8.2790 O.co2        1 ATP703   0.0000
     3 O2G        -14.7170    19.2950   -10.6250 O.co2        1 ATP703  -1.0000
     4 O3G        -15.5830    21.3910    -9.5810 O.co2        1 ATP703  -1.0000
     5 PB         -13.0870    19.6410    -7.2230 P.3          1 ATP703   0.0000
     6 O1B        -13.6360    18.2660    -7.0410 O.co2        1 ATP703   0.0000
     7 O2B        -11.6200    19.9110    -6.9440 O.co2        1 ATP703  -1.0000
     8 O3B        -13.6360    20.1750    -8.6010 O.3          1 ATP703   0.0000
     9 PA         -14.9450    20.4910    -5.0630 P.3          1 ATP703   0.0000
    10 O1A        -15.8270    19.3520    -5.4320 O.co2        1 ATP703   0.0000
    11 O2A        -15.6010    21.8190    -4.8920 O.co2        1 ATP703  -1.0000
    12 O3A        -13.8950    20.7660    -6.3360 O.3          1 ATP703   0.0000
    13 O5'        -13.9620    20.1530    -3.9120 O.3          1 ATP703   0.0000
    14 C5'        -12.9850    21.1070    -3.4380 C.3          1 ATP703   0.0000
    15 C4'        -11.7280    20.4750    -2.8930 C.3          1 ATP703   0.0000
    16 O4'        -12.0360    19.8630    -1.6210 O.3          1 ATP703   0.0000
    17 C3'        -11.1860    19.3770    -3.7920 C.3          1 ATP703   0.0000
    18 O3'        -10.3890    19.9380    -4.8700 O.3          1 ATP703   0.0000
    19 C2'        -10.4470    18.5200    -2.7830 C.3          1 ATP703   0.0000
    20 O2'         -9.1740    19.0690    -2.4240 O.3          1 ATP703   0.0000
    21 C1'        -11.2830    18.6560    -1.5110 C.3          1 ATP703   0.0000
    22 N9         -12.2520    17.5570    -1.2930 N.pl3        1 ATP703   0.0000
    23 C8         -13.5850    17.5860    -1.5800 C.2          1 ATP703   0.0000
    24 N7         -14.1900    16.4300    -1.2190 N.2          1 ATP703   0.0000
    25 C5         -13.2260    15.6460    -0.6930 C.ar         1 ATP703   0.0000
    26 C6         -13.1740    14.2950    -0.1080 C.ar         1 ATP703   0.0000
    27 N6         -14.3080    13.5590    -0.0450 N.pl3        1 ATP703   0.0000
    28 N1         -11.9580    13.8340     0.3230 N.ar         1 ATP703   0.0000
    29 C2         -10.8430    14.5850     0.2420 C.ar         1 ATP703   0.0000
    30 N3         -10.8150    15.8280    -0.2750 N.ar         1 ATP703   0.0000
    31 C4         -11.9600    16.3910    -0.7470 C.ar         1 ATP703   0.0000
    32 H5'1       -13.4038    21.6521    -2.7117 H            1 ATP703   0.0000
    33 H5'2       -12.7326    21.7040    -4.1995 H            1 ATP703   0.0000
    34 H4'        -11.0286    21.1782    -2.7651 H            1 ATP703   0.0000
    35 H3'        -11.9475    18.8558    -4.1773 H            1 ATP703   0.0000
    36 H5         -10.7926    19.6852    -5.7493 H            1 ATP703   0.0000
    37 H2'        -10.3733    17.5688    -3.0825 H            1 ATP703   0.0000
    38 H7          -8.4726    18.7176    -3.0441 H            1 ATP703   0.0000
    39 H1'        -10.6731    18.7190    -0.7210 H            1 ATP703   0.0000
    40 H9         -14.0548    18.3611    -2.0025 H            1 ATP703   0.0000
    41 H10        -14.2866    12.6404     0.3497 H            1 ATP703   0.0000
    42 H11        -15.1673    13.9337    -0.3931 H            1 ATP703   0.0000
    43 H12         -9.9874    14.1976     0.5853 H            1 ATP703   0.0000
@<TRIPOS>BOND
     1    1    2      ar
     2    1    3      ar
     3    1    4      ar
     4    1    8       1
     5    5    6      ar
     6    5    7      ar
     7    5    8       1
     8    5   12       1
     9    9   10      ar
    10    9   11      ar
    11    9   12       1
    12    9   13       1
    13   13   14       1
    14   14   15       1
    15   15   16       1
    16   15   17       1
    17   16   21       1
    18   17   18       1
    19   17   19       1
    20   19   20       1
    21   19   21       1
    22   21   22       1
    23   22   23       1
    24   22   31       1
    25   23   24       2
    26   24   25       1
    27   25   26      ar
    28   25   31      ar
    29   26   27       1
    30   26   28      ar
    31   28   29      ar
    32   29   30      ar
    33   30   31      ar
    34   29   43       1
    35   27   42       1
    36   27   41       1
    37   23   40       1
    38   14   32       1
    39   14   33       1
    40   15   34       1
    41   17   35       1
    42   18   36       1
    43   19   37       1
    44   20   38       1
    45   21   39       1
@<TRIPOS>SUBSTRUCTURE
     1 ATP703      1 GROUP             4 A     ATP     0 **** ATP A 703
