@<TRIPOS>MOLECULE
1szc_CNA_1_ligand
   70    74     1     0     0
SMALL
NO_CHARGES


@<TRIPOS>ATOM
     1 PA          -9.4320    32.4120   -44.0350 P.3          1 CNA1001   0.0000
     2 O1A        -10.6610    33.1320   -44.4250 O.co2        1 CNA1001   0.0000
     3 O2A         -8.9150    31.5560   -45.1350 O.co2        1 CNA1001  -1.0000
     4 O5B         -9.6800    31.5600   -42.8430 O.3          1 CNA1001   0.0000
     5 C5B        -10.2080    31.9800   -41.5390 C.3          1 CNA1001   0.0000
     6 C4B        -10.2920    30.7790   -40.6550 C.3          1 CNA1001   0.0000
     7 O4B        -10.8020    31.1330   -39.3690 O.3          1 CNA1001   0.0000
     8 C3B        -11.1780    29.7200   -41.1260 C.3          1 CNA1001   0.0000
     9 O3B        -10.2480    28.5940   -41.2340 O.3          1 CNA1001   0.0000
    10 C2B        -12.2160    29.4670   -40.1130 C.3          1 CNA1001   0.0000
    11 O2B        -12.4020    28.0930   -39.6850 O.3          1 CNA1001   0.0000
    12 C1B        -11.9210    30.3720   -39.0170 C.3          1 CNA1001   0.0000
    13 N9A        -12.9250    31.3860   -38.5710 N.pl3        1 CNA1001   0.0000
    14 C8A        -13.8700    32.2280   -39.2100 C.2          1 CNA1001   0.0000
    15 N7A        -14.5620    32.9930   -38.2910 N.2          1 CNA1001   0.0000
    16 C5A        -14.0410    32.6230   -37.0330 C.ar         1 CNA1001   0.0000
    17 C6A        -14.2740    33.0020   -35.6190 C.ar         1 CNA1001   0.0000
    18 N6A        -15.1630    33.9060   -35.2500 N.pl3        1 CNA1001   0.0000
    19 N1A        -13.5070    32.3760   -34.5290 N.ar         1 CNA1001   0.0000
    20 C2A        -12.5000    31.3690   -34.8120 C.ar         1 CNA1001   0.0000
    21 N3A        -12.2150    30.9540   -36.1200 N.ar         1 CNA1001   0.0000
    22 C4A        -13.0170    31.6180   -37.1890 C.ar         1 CNA1001   0.0000
    23 O3          -8.4070    33.4370   -43.8240 O.3          1 CNA1001   0.0000
    24 PN          -7.0050    33.6290   -43.4490 P.3          1 CNA1001   0.0000
    25 O1N         -6.4270    32.3000   -43.1620 O.co2        1 CNA1001   0.0000
    26 O2N         -6.6560    34.3030   -42.2710 O.co2        1 CNA1001  -1.0000
    27 O5D         -6.4320    33.4860   -44.8130 O.3          1 CNA1001   0.0000
    28 C5D         -5.7890    34.7990   -45.0140 C.3          1 CNA1001   0.0000
    29 C4D         -6.5120    35.7020   -45.9320 C.2          1 CNA1001   0.0000
    30 C4'         -7.8690    36.0220   -45.7050 C.2          1 CNA1001   0.0000
    31 C3D         -6.0160    36.3200   -47.0350 C.3          1 CNA1001   0.0000
    32 O3D         -5.5880    35.7580   -48.3480 O.3          1 CNA1001   0.0000
    33 C2D         -6.9690    37.5000   -47.1750 C.3          1 CNA1001   0.0000
    34 O2D         -6.7960    38.0800   -48.4390 O.3          1 CNA1001   0.0000
    35 C1D         -8.2810    36.8850   -46.6850 C.3          1 CNA1001   0.0000
    36 N1N         -9.0640    37.8600   -45.9000 N.ar         1 CNA1001   1.0000
    37 C2N         -8.5370    38.8710   -44.9410 C.ar         1 CNA1001   0.0000
    38 C3N         -9.4930    39.7180   -44.2810 C.ar         1 CNA1001   0.0000
    39 C7N         -9.1440    40.7740   -43.3040 C.2          1 CNA1001   0.0000
    40 O7N         -7.9250    41.4350   -43.5840 O.2          1 CNA1001   0.0000
    41 N7N         -9.9630    41.0710   -42.1870 N.am         1 CNA1001   0.0000
    42 C4N        -10.9370    39.5690   -44.5630 C.ar         1 CNA1001   0.0000
    43 C5N        -11.4070    38.5650   -45.5140 C.ar         1 CNA1001   0.0000
    44 C6N        -10.5290    37.6650   -46.2310 C.ar         1 CNA1001   0.0000
    45 H5B1       -11.1180    32.3779   -41.6554 H            1 CNA1001   0.0000
    46 H5B2        -9.5975    32.6582   -41.1301 H            1 CNA1001   0.0000
    47 H4B         -9.3734    30.4005   -40.5416 H            1 CNA1001   0.0000
    48 H3B        -11.5805    29.9478   -42.0126 H            1 CNA1001   0.0000
    49 H5         -10.7401    27.7848   -41.5551 H            1 CNA1001   0.0000
    50 H2B        -13.0843    29.7661   -40.5086 H            1 CNA1001   0.0000
    51 H7         -11.8082    27.9042   -38.9028 H            1 CNA1001   0.0000
    52 H1B        -11.6744    29.8175   -38.2222 H            1 CNA1001   0.0000
    53 H8A        -14.0167    32.2635   -40.1985 H            1 CNA1001   0.0000
    54 H6A1       -15.2809    34.1251   -34.2814 H            1 CNA1001   0.0000
    55 H6A2       -15.7183    34.3715   -35.9391 H            1 CNA1001   0.0000
    56 H2A        -11.9953    30.9598   -34.0518 H            1 CNA1001   0.0000
    57 H5D1        -4.8733    34.6446   -45.3849 H            1 CNA1001   0.0000
    58 H5D2        -5.7166    35.2505   -44.1247 H            1 CNA1001   0.0000
    59 H4'         -8.4334    35.6766   -44.9552 H            1 CNA1001   0.0000
    60 H3D         -5.1797    36.7486   -46.6930 H            1 CNA1001   0.0000
    61 H17         -4.8625    36.3279   -48.7339 H            1 CNA1001   0.0000
    62 H2D         -6.6933    38.1825   -46.4981 H            1 CNA1001   0.0000
    63 H19         -5.8521    38.3962   -48.5343 H            1 CNA1001   0.0000
    64 H1D         -8.8084    36.4419   -47.4099 H            1 CNA1001   0.0000
    65 H2N         -7.5567    38.9571   -44.7633 H            1 CNA1001   0.0000
    66 H7N1        -9.6947    41.7917   -41.5478 H            1 CNA1001   0.0000
    67 H7N2       -10.8095    40.5599   -42.0377 H            1 CNA1001   0.0000
    68 H4N        -11.5967    40.1602   -44.0990 H            1 CNA1001   0.0000
    69 H5N        -12.3908    38.4955   -45.6790 H            1 CNA1001   0.0000
    70 H6N        -10.8578    36.9807   -46.8819 H            1 CNA1001   0.0000
@<TRIPOS>BOND
     1    1    2      ar
     2    1    3      ar
     3    1    4       1
     4    1   23       1
     5    4    5       1
     6    5    6       1
     7    6    7       1
     8    6    8       1
     9    7   12       1
    10    8    9       1
    11    8   10       1
    12   10   11       1
    13   10   12       1
    14   12   13       1
    15   13   14       1
    16   13   22       1
    17   14   15       2
    18   15   16       1
    19   16   17      ar
    20   16   22      ar
    21   17   18       1
    22   17   19      ar
    23   19   20      ar
    24   20   21      ar
    25   21   22      ar
    26   23   24       1
    27   24   25      ar
    28   24   26      ar
    29   24   27       1
    30   27   28       1
    31   28   29       1
    32   29   30       2
    33   29   31       1
    34   30   35       1
    35   31   32       1
    36   31   33       1
    37   33   34       1
    38   33   35       1
    39   35   36       1
    40   36   37      ar
    41   36   44      ar
    42   37   38      ar
    43   38   39       1
    44   38   42      ar
    45   39   40       2
    46   39   41      am
    47   42   43      ar
    48   43   44      ar
    49   44   70       1
    50    5   45       1
    51    5   46       1
    52    6   47       1
    53    8   48       1
    54    9   49       1
    55   10   50       1
    56   11   51       1
    57   12   52       1
    58   14   53       1
    59   18   54       1
    60   18   55       1
    61   20   56       1
    62   43   69       1
    63   28   57       1
    64   28   58       1
    65   30   59       1
    66   31   60       1
    67   32   61       1
    68   33   62       1
    69   34   63       1
    70   35   64       1
    71   37   65       1
    72   41   66       1
    73   41   67       1
    74   42   68       1
@<TRIPOS>SUBSTRUCTURE
     1 CNA1001     1 GROUP             4 A     CNA     0 **** CNA A1001
