@<TRIPOS>MOLECULE
5f0a_1FB_1_ligand
   38    40     1     0     0
SMALL
NO_CHARGES


@<TRIPOS>ATOM
     1 CAA        -24.9560    70.0570    34.5270 C.3          1 1FB901   0.0000
     2 CAV        -26.2620    69.4180    34.0630 C.3          1 1FB901   0.0000
     3 CAB        -27.4540    70.0220    34.8090 C.3          1 1FB901   0.0000
     4 CAC        -26.2140    67.9150    34.3400 C.3          1 1FB901   0.0000
     5 NAU        -26.3940    69.6460    32.5800 N.pl3        1 1FB901   0.0000
     6 NAM        -25.7630    68.7310    31.7390 N.2          1 1FB901   0.0000
     7 C4         -27.0390    70.6020    31.8760 C.ar         1 1FB901   0.0000
     8 N3         -27.7300    71.6370    32.3750 N.ar         1 1FB901   0.0000
     9 C2         -28.2570    72.4020    31.4120 C.ar         1 1FB901   0.0000
    10 N1         -28.1800    72.2510    30.0870 N.ar         1 1FB901   0.0000
    11 C6         -27.4740    71.2070    29.5990 C.ar         1 1FB901   0.0000
    12 NAD        -27.3960    71.0660    28.2740 N.pl3        1 1FB901   0.0000
    13 C5         -26.8540    70.3130    30.5100 C.ar         1 1FB901   0.0000
    14 CAR        -26.0460    69.1260    30.5550 C.2          1 1FB901   0.0000
    15 OAN        -25.7280    68.5410    29.3770 O.3          1 1FB901   0.0000
    16 CAQ        -24.5620    68.8800    28.6680 C.ar         1 1FB901   0.0000
    17 CAJ        -23.9440    67.8790    27.9340 C.ar         1 1FB901   0.0000
    18 CAO        -22.8660    68.2100    27.1400 C.ar         1 1FB901   0.0000
    19 CL1        -22.1370    66.9760    26.1520 Cl           1 1FB901   0.0000
    20 CAG        -22.3790    69.4970    27.0770 C.ar         1 1FB901   0.0000
    21 CAF        -22.9960    70.4830    27.8300 C.ar         1 1FB901   0.0000
    22 CAH        -24.0890    70.1860    28.6290 C.ar         1 1FB901   0.0000
    23 HAA1       -24.1903    69.6499    34.0290 H            1 1FB901   0.0000
    24 HAA2       -24.9844    71.0406    34.3487 H            1 1FB901   0.0000
    25 HAA3       -24.8376    69.8992    35.5073 H            1 1FB901   0.0000
    26 HAB1       -28.2988    69.5912    34.4917 H            1 1FB901   0.0000
    27 HAB2       -27.3476    69.8640    35.7907 H            1 1FB901   0.0000
    28 HAB3       -27.4944    71.0054    34.6321 H            1 1FB901   0.0000
    29 HAC1       -27.0684    67.4928    34.0372 H            1 1FB901   0.0000
    30 HAC2       -25.4471    67.5088    33.8432 H            1 1FB901   0.0000
    31 HAC3       -26.0951    67.7604    35.3208 H            1 1FB901   0.0000
    32 H10        -28.7794    73.1944    31.7270 H            1 1FB901   0.0000
    33 HAD1       -26.8811    70.3038    27.8817 H            1 1FB901   0.0000
    34 HAD2       -27.8525    71.7226    27.6736 H            1 1FB901   0.0000
    35 HAJ        -24.2734    66.9359    27.9795 H            1 1FB901   0.0000
    36 HAG        -21.5937    69.7159    26.4978 H            1 1FB901   0.0000
    37 HAF        -22.6486    71.4201    27.7966 H            1 1FB901   0.0000
    38 HAH        -24.5310    70.9016    29.1698 H            1 1FB901   0.0000
@<TRIPOS>BOND
     1    1    2       1
     2    2    3       1
     3    2    4       1
     4    2    5       1
     5    5    6       1
     6    5    7       1
     7    6   14       2
     8    7    8      ar
     9    7   13      ar
    10    8    9      ar
    11    9   10      ar
    12   10   11      ar
    13   11   12       1
    14   11   13      ar
    15   13   14       1
    16   14   15       1
    17   15   16       1
    18   16   17      ar
    19   16   22      ar
    20   17   18      ar
    21   18   19       1
    22   18   20      ar
    23   20   21      ar
    24   21   22      ar
    25    1   23       1
    26    1   24       1
    27    1   25       1
    28    3   26       1
    29    3   27       1
    30    3   28       1
    31    4   29       1
    32    4   30       1
    33    4   31       1
    34    9   32       1
    35   12   33       1
    36   12   34       1
    37   17   35       1
    38   20   36       1
    39   21   37       1
    40   22   38       1
@<TRIPOS>SUBSTRUCTURE
     1 1FB901      1 GROUP             4 A     1FB     0 **** 1FB A 901
