@<TRIPOS>MOLECULE
4xsd_UMP_1_ligand
   31    32     1     0     0
SMALL
NO_CHARGES


@<TRIPOS>ATOM
     1 N1           2.0540    72.5580   -41.8630 N.pl3        1 UMP1001   0.0000
     2 C2           0.6760    72.8590   -41.4190 C.2          1 UMP1001   0.0000
     3 N3          -0.3800    71.8440   -41.6100 N.pl3        1 UMP1001   0.0000
     4 C4          -0.0780    70.5840   -42.2180 C.2          1 UMP1001   0.0000
     5 C5           1.2820    70.3000   -42.6510 C.2          1 UMP1001   0.0000
     6 C6           2.3300    71.3060   -42.4620 C.2          1 UMP1001   0.0000
     7 O2           0.3870    73.9030   -40.9090 O.2          1 UMP1001   0.0000
     8 O4          -0.9500    69.7340   -42.3820 O.2          1 UMP1001   0.0000
     9 C1'          3.1510    73.4890   -41.7130 C.3          1 UMP1001   0.0000
    10 C2'          3.0630    74.3450   -40.3970 C.3          1 UMP1001   0.0000
    11 C3'          4.4910    74.6380   -40.0720 C.3          1 UMP1001   0.0000
    12 C4'          5.2220    73.6710   -40.6410 C.3          1 UMP1001   0.0000
    13 O3'          4.8540    75.9500   -40.7030 O.3          1 UMP1001   0.0000
    14 O4'          4.2220    72.8160   -41.5640 O.3          1 UMP1001   0.0000
    15 C5'          5.8920    72.7410   -39.6340 C.3          1 UMP1001   0.0000
    16 O5'          7.2890    72.9550   -39.6970 O.3          1 UMP1001   0.0000
    17 P            8.0770    72.8880   -38.3440 P.3          1 UMP1001   0.0000
    18 OP1          9.5300    73.2340   -38.5700 O.co2        1 UMP1001   0.0000
    19 OP2          7.4720    73.9110   -37.3720 O.co2        1 UMP1001  -1.0000
    20 OP3          7.9560    71.4810   -37.7690 O.co2        1 UMP1001  -1.0000
    21 H1          -1.3144    72.0390   -41.3118 H            1 UMP1001   0.0000
    22 H2           1.5003    69.4215   -43.0759 H            1 UMP1001   0.0000
    23 H3           3.2618    71.1033   -42.7632 H            1 UMP1001   0.0000
    24 H1'          3.2188    74.0834   -42.5143 H            1 UMP1001   0.0000
    25 H2'1         2.6289    73.8251   -39.6613 H            1 UMP1001   0.0000
    26 H2'2         2.5521    75.1901   -40.5543 H            1 UMP1001   0.0000
    27 H3'          4.6362    74.6630   -39.0829 H            1 UMP1001   0.0000
    28 H4'          5.9239    74.0882   -41.2183 H            1 UMP1001   0.0000
    29 H9           5.8085    76.1660   -40.4974 H            1 UMP1001   0.0000
    30 H5'1         5.6846    71.7896   -39.8616 H            1 UMP1001   0.0000
    31 H5'2         5.5596    72.9435   -38.7128 H            1 UMP1001   0.0000
@<TRIPOS>BOND
     1    1    2       1
     2    1    6       1
     3    1    9       1
     4    2    3       1
     5    2    7       2
     6    3    4       1
     7    4    5       1
     8    4    8       2
     9    5    6       2
    10    9   10       1
    11    9   14       1
    12   10   11       1
    13   11   12       1
    14   11   13       1
    15   12   14       1
    16   12   15       1
    17   15   16       1
    18   16   17       1
    19   17   18      ar
    20   17   19      ar
    21   17   20      ar
    22    3   21       1
    23    5   22       1
    24    6   23       1
    25    9   24       1
    26   10   25       1
    27   10   26       1
    28   11   27       1
    29   12   28       1
    30   13   29       1
    31   15   30       1
    32   15   31       1
@<TRIPOS>SUBSTRUCTURE
     1 UMP1001     1 GROUP             4 A     UMP     0 **** UMP A1001
