@<TRIPOS>MOLECULE
3c23_3AT_1_ligand
   42    44     1     0     0
SMALL
NO_CHARGES


@<TRIPOS>ATOM
     1 PG         -35.5880    13.8620    76.0440 P.3          1 3AT611   0.0000
     2 O1G        -35.8180    15.1420    76.7510 O.co2        1 3AT611   0.0000
     3 O2G        -36.7950    13.4690    75.0540 O.co2        1 3AT611  -1.0000
     4 O3G        -34.2600    13.8810    75.1350 O.co2        1 3AT611  -1.0000
     5 PB         -33.9530    12.1990    77.5740 P.3          1 3AT611   0.0000
     6 O1B        -33.9990    11.2900    78.7410 O.co2        1 3AT611   0.0000
     7 O2B        -33.1980    11.5530    76.3080 O.co2        1 3AT611  -1.0000
     8 O3B        -35.4170    12.6160    77.0490 O.3          1 3AT611   0.0000
     9 PA         -32.5180    13.8200    79.3320 P.3          1 3AT611   0.0000
    10 O1A        -31.3960    14.7840    79.2920 O.co2        1 3AT611   0.0000
    11 O2A        -33.7140    14.2930    80.3000 O.co2        1 3AT611  -1.0000
    12 O3A        -33.1870    13.5800    77.8870 O.3          1 3AT611   0.0000
    13 O5'        -32.0740    12.3650    79.8590 O.3          1 3AT611   0.0000
    14 C5'        -31.3270    12.2420    81.0730 C.3          1 3AT611   0.0000
    15 C4'        -29.8890    11.8020    80.7900 C.3          1 3AT611   0.0000
    16 O4'        -29.1190    12.9340    80.3550 O.3          1 3AT611   0.0000
    17 C3'        -29.2180    11.3780    82.0970 C.3          1 3AT611   0.0000
    18 C2'        -27.7780    11.8710    81.9470 C.3          1 3AT611   0.0000
    19 O2'        -26.8870    10.7520    81.9540 O.3          1 3AT611   0.0000
    20 C1'        -27.7580    12.5310    80.5680 C.3          1 3AT611   0.0000
    21 N9         -26.8890    13.7290    80.6060 N.pl3        1 3AT611   0.0000
    22 C8         -27.2980    14.9960    80.5360 C.2          1 3AT611   0.0000
    23 N7         -26.2390    15.8050    80.6010 N.2          1 3AT611   0.0000
    24 C5         -25.1540    15.0480    80.7140 C.ar         1 3AT611   0.0000
    25 C6         -23.7990    15.3240    80.8190 C.ar         1 3AT611   0.0000
    26 N6         -23.3640    16.5810    80.8200 N.pl3        1 3AT611   0.0000
    27 N1         -22.9350    14.3040    80.9210 N.ar         1 3AT611   0.0000
    28 C2         -23.3640    13.0510    80.9210 C.ar         1 3AT611   0.0000
    29 N3         -24.6500    12.7550    80.8210 N.ar         1 3AT611   0.0000
    30 C4         -25.5640    13.7290    80.7170 C.ar         1 3AT611   0.0000
    31 H5'1       -31.7672    11.5629    81.6604 H            1 3AT611   0.0000
    32 H5'2       -31.3126    13.1266    81.5391 H            1 3AT611   0.0000
    33 H4'        -29.8625    11.0653    80.1143 H            1 3AT611   0.0000
    34 H3'1       -29.2446    10.3842    82.2046 H            1 3AT611   0.0000
    35 H3'2       -29.6623    11.8103    82.8817 H            1 3AT611   0.0000
    36 H2'        -27.5427    12.5258    82.6653 H            1 3AT611   0.0000
    37 H7         -26.0815    10.9638    81.4005 H            1 3AT611   0.0000
    38 H1'        -27.4569    11.8881    79.8638 H            1 3AT611   0.0000
    39 H9         -28.2488    15.2932    80.4485 H            1 3AT611   0.0000
    40 H10        -22.3852    16.7713    80.8961 H            1 3AT611   0.0000
    41 H11        -24.0157    17.3357    80.7447 H            1 3AT611   0.0000
    42 H12        -22.6984    12.3087    80.9986 H            1 3AT611   0.0000
@<TRIPOS>BOND
     1    1    2      ar
     2    1    3      ar
     3    1    4      ar
     4    1    8       1
     5    5    6      ar
     6    5    7      ar
     7    5    8       1
     8    5   12       1
     9    9   10      ar
    10    9   11      ar
    11    9   12       1
    12    9   13       1
    13   13   14       1
    14   14   15       1
    15   15   16       1
    16   15   17       1
    17   16   20       1
    18   17   18       1
    19   18   19       1
    20   18   20       1
    21   20   21       1
    22   21   22       1
    23   21   30       1
    24   22   23       2
    25   23   24       1
    26   24   25      ar
    27   24   30      ar
    28   25   26       1
    29   25   27      ar
    30   27   28      ar
    31   28   29      ar
    32   29   30      ar
    33   28   42       1
    34   26   41       1
    35   26   40       1
    36   22   39       1
    37   14   31       1
    38   14   32       1
    39   15   33       1
    40   17   34       1
    41   17   35       1
    42   18   36       1
    43   19   37       1
    44   20   38       1
@<TRIPOS>SUBSTRUCTURE
     1 3AT611      1 GROUP             4 A     3AT     0 **** 3AT A 611
