@<TRIPOS>MOLECULE
1xvp_CID_1_ligand
   39    42     1     0     0
SMALL
NO_CHARGES


@<TRIPOS>ATOM
     1 C20         23.1100    54.9390    27.4960 C.ar         1 CID1003   0.0000
     2 C18         23.7860    54.3490    26.2780 C.3          1 CID1003   0.0000
     3 O16         24.5780    53.2050    26.5990 O.3          1 CID1003   0.0000
     4 N11         25.5470    53.2520    27.4750 N.2          1 CID1003   0.0000
     5 C10         26.0520    52.1990    27.9500 C.2          1 CID1003   0.0000
     6 C21         23.1520    56.3570    27.7490 C.ar         1 CID1003   0.0000
     7 C23         22.5540    56.9120    28.9370 C.ar         1 CID1003   0.0000
     8 CL26        22.6390    58.6510    29.2260 Cl           1 CID1003   0.0000
     9 C25         21.8960    56.0370    29.8790 C.ar         1 CID1003   0.0000
    10 CL27        21.1700    56.6690    31.3480 Cl           1 CID1003   0.0000
    11 C24         21.8340    54.6270    29.6200 C.ar         1 CID1003   0.0000
    12 C22         22.4390    54.0830    28.4410 C.ar         1 CID1003   0.0000
    13 N5          28.0960    51.1740    29.0470 N.pl3        1 CID1003   0.0000
    14 C9          28.8530    51.3960    30.1410 C.2          1 CID1003   0.0000
    15 N4          28.5170    52.5370    30.7810 N.2          1 CID1003   0.0000
    16 C1          27.5170    53.0910    30.0490 C.2          1 CID1003   0.0000
    17 C2          27.1880    52.1960    28.9520 C.2          1 CID1003   0.0000
    18 C3          26.9480    54.3380    30.5270 C.ar         1 CID1003   0.0000
    19 C8          27.0020    54.6140    31.9470 C.ar         1 CID1003   0.0000
    20 C13         26.3230    55.7520    32.5080 C.ar         1 CID1003   0.0000
    21 C17         25.6490    56.6850    31.6510 C.ar         1 CID1003   0.0000
    22 CL19        24.8120    58.0770    32.3310 Cl           1 CID1003   0.0000
    23 C12         25.6710    56.4740    30.2310 C.ar         1 CID1003   0.0000
    24 C7          26.2940    55.3040    29.6750 C.ar         1 CID1003   0.0000
    25 C11         28.3500    49.9540    28.4050 C.2          1 CID1003   0.0000
    26 S14         29.9990    50.1730    30.4580 S.3          1 CID1003   0.0000
    27 C15         29.3540    49.2750    29.0310 C.2          1 CID1003   0.0000
    28 H1          24.3767    55.0447    25.8693 H            1 CID1003   0.0000
    29 H2          23.0836    54.0794    25.6193 H            1 CID1003   0.0000
    30 H3          25.6832    51.3194    27.6494 H            1 CID1003   0.0000
    31 H4          23.6013    56.9630    27.0926 H            1 CID1003   0.0000
    32 H5          21.3668    54.0220    30.2648 H            1 CID1003   0.0000
    33 H6          22.3952    53.0984    28.2720 H            1 CID1003   0.0000
    34 H7          27.5193    54.0043    32.5475 H            1 CID1003   0.0000
    35 H8          26.3208    55.8931    33.4980 H            1 CID1003   0.0000
    36 H9          25.2492    57.1470    29.6234 H            1 CID1003   0.0000
    37 H10         26.2744    55.1569    28.6861 H            1 CID1003   0.0000
    38 H11         27.8610    49.6256    27.5969 H            1 CID1003   0.0000
    39 H12         29.6936    48.3826    28.7337 H            1 CID1003   0.0000
@<TRIPOS>BOND
     1    1    2       1
     2    1    6      ar
     3    1   12      ar
     4    2    3       1
     5    3    4       1
     6    4    5       2
     7    5   17       1
     8    6    7      ar
     9    7    8       1
    10    7    9      ar
    11    9   10       1
    12    9   11      ar
    13   11   12      ar
    14   13   14       1
    15   13   17       1
    16   13   25       1
    17   14   15       2
    18   14   26       1
    19   15   16       1
    20   16   17       2
    21   16   18       1
    22   18   19      ar
    23   18   24      ar
    24   19   20      ar
    25   20   21      ar
    26   21   22       1
    27   21   23      ar
    28   23   24      ar
    29   25   27       2
    30   26   27       1
    31    2   28       1
    32    2   29       1
    33    5   30       1
    34    6   31       1
    35   11   32       1
    36   12   33       1
    37   19   34       1
    38   20   35       1
    39   23   36       1
    40   24   37       1
    41   25   38       1
    42   27   39       1
@<TRIPOS>SUBSTRUCTURE
     1 CID1003     1 GROUP             4 D     CID     0 **** CID D1003
