@<TRIPOS>MOLECULE
3uwq_U5P_1_ligand
   32    33     1     0     0
SMALL
NO_CHARGES


@<TRIPOS>ATOM
     1 N1         -17.4330    23.3750   -19.0020 N.pl3        1 U5P232   0.0000
     2 C2         -18.3300    22.4080   -19.5080 C.2          1 U5P232   0.0000
     3 N3         -19.2220    22.7450   -20.4620 N.pl3        1 U5P232   0.0000
     4 C4         -19.2760    24.0130   -20.9270 C.2          1 U5P232   0.0000
     5 C5         -18.4110    24.9890   -20.4330 C.2          1 U5P232   0.0000
     6 C6         -17.4920    24.6440   -19.4480 C.2          1 U5P232   0.0000
     7 O2         -18.2950    21.2350   -19.0830 O.2          1 U5P232   0.0000
     8 O4         -20.1110    24.3110   -21.8030 O.2          1 U5P232   0.0000
     9 C1'        -16.5030    22.9850   -17.9350 C.3          1 U5P232   0.0000
    10 C2'        -15.0180    23.2190   -18.1660 C.3          1 U5P232   0.0000
    11 O2'        -14.3630    22.1120   -18.7790 O.3          1 U5P232   0.0000
    12 C3'        -14.5230    23.4660   -16.7510 C.3          1 U5P232   0.0000
    13 C4'        -15.6820    24.1880   -16.0920 C.3          1 U5P232   0.0000
    14 O3'        -14.2610    22.2360   -16.0520 O.3          1 U5P232   0.0000
    15 O4'        -16.8520    23.7990   -16.8150 O.3          1 U5P232   0.0000
    16 C5'        -15.5140    25.7030   -16.1240 C.3          1 U5P232   0.0000
    17 O5'        -15.1610    26.1460   -17.4370 O.3          1 U5P232   0.0000
    18 P          -14.4730    27.5780   -17.6870 P.3          1 U5P232   0.0000
    19 O1P        -13.0150    27.4170   -17.3040 O.co2        1 U5P232   0.0000
    20 O2P        -14.6730    27.8520   -19.1610 O.co2        1 U5P232  -1.0000
    21 O3P        -15.2610    28.5300   -16.8150 O.co2        1 U5P232  -1.0000
    22 H1         -19.8459    22.0539   -20.8268 H            1 U5P232   0.0000
    23 H2         -18.4511    25.9250   -20.7826 H            1 U5P232   0.0000
    24 H3         -16.8765    25.3367   -19.0719 H            1 U5P232   0.0000
    25 H1'        -16.6526    22.0239   -17.7028 H            1 U5P232   0.0000
    26 H2'        -14.8860    24.0409   -18.7201 H            1 U5P232   0.0000
    27 H6         -14.3988    22.2124   -19.7733 H            1 U5P232   0.0000
    28 H3'        -13.7079    24.0453   -16.7602 H            1 U5P232   0.0000
    29 H4'        -15.7638    23.8844   -15.1427 H            1 U5P232   0.0000
    30 H9         -13.2992    22.2055   -15.7801 H            1 U5P232   0.0000
    31 H5'1       -14.7925    25.9666   -15.4838 H            1 U5P232   0.0000
    32 H5'2       -16.3744    26.1343   -15.8525 H            1 U5P232   0.0000
@<TRIPOS>BOND
     1    1    2       1
     2    1    6       1
     3    1    9       1
     4    2    3       1
     5    2    7       2
     6    3    4       1
     7    4    5       1
     8    4    8       2
     9    5    6       2
    10    9   10       1
    11    9   15       1
    12   10   11       1
    13   10   12       1
    14   12   13       1
    15   12   14       1
    16   13   15       1
    17   13   16       1
    18   16   17       1
    19   17   18       1
    20   18   19      ar
    21   18   20      ar
    22   18   21      ar
    23    3   22       1
    24    5   23       1
    25    6   24       1
    26    9   25       1
    27   10   26       1
    28   11   27       1
    29   12   28       1
    30   13   29       1
    31   14   30       1
    32   16   31       1
    33   16   32       1
@<TRIPOS>SUBSTRUCTURE
     1 U5P232      1 GROUP             4 A     U5P     0 **** U5P A 232
