@<TRIPOS>MOLECULE
3cku_AZA_1_ligand
   13    14     1     0     0
SMALL
NO_CHARGES


@<TRIPOS>ATOM
     1 N1          29.7350    27.1880    36.3480 N.pl3        1 AZA302   0.0000
     2 C2          28.9640    27.0160    37.4660 C.2          1 AZA302   0.0000
     3 O2          27.8530    27.4760    37.5200 O.2          1 AZA302   0.0000
     4 N3          29.5080    26.3010    38.5060 N.pl3        1 AZA302  -1.0000
     5 C4          30.7800    25.8530    38.3670 C.2          1 AZA302   0.0000
     6 C5          31.5380    25.9910    37.2210 C.2          1 AZA302   0.0000
     7 C6          31.0210    26.7510    36.1130 C.2          1 AZA302   0.0000
     8 O6          31.5690    26.9710    35.0350 O.2          1 AZA302   0.0000
     9 N7          32.7090    25.3990    37.3280 N.pl3        1 AZA302   0.0000
    10 N8          32.7060    24.8830    38.5410 N.2          1 AZA302   0.0000
    11 N9          31.5430    25.1100    39.2370 N.2          1 AZA302   0.0000
    12 H1          29.3081    27.6991    35.6020 H            1 AZA302   0.0000
    13 H2          33.4365    25.3515    36.6436 H            1 AZA302   0.0000
@<TRIPOS>BOND
     1    1    2       1
     2    1    7       1
     3    2    3       2
     4    2    4       1
     5    4    5       1
     6    5    6       2
     7    5   11       1
     8    6    7       1
     9    6    9       1
    10    7    8       2
    11    9   10       1
    12   10   11       2
    13    1   12       1
    14    9   13       1
@<TRIPOS>SUBSTRUCTURE
     1 AZA302      1 GROUP             4 A     AZA     0 **** AZA A 302
