@<TRIPOS>MOLECULE
4fub_4UP_1_ligand
   39    42     1     0     0
SMALL
NO_CHARGES


@<TRIPOS>ATOM
     1 N2         -10.7300   -19.5640     7.0920 N.pl3        1 4UP301   1.0000
     2 C1          -9.5030   -19.8460     6.8980 C.cat        1 4UP301   0.0000
     3 N1          -9.0120   -21.0330     6.3670 N.pl3        1 4UP301   0.0000
     4 C2          -8.5070   -18.7570     7.2300 C.ar         1 4UP301   0.0000
     5 C11         -7.2170   -18.7550     6.6920 C.ar         1 4UP301   0.0000
     6 C10         -6.3310   -17.6670     6.9790 C.ar         1 4UP301   0.0000
     7 C5          -6.7860   -16.5850     7.8290 C.ar         1 4UP301   0.0000
     8 C4          -8.1070   -16.6150     8.3870 C.ar         1 4UP301   0.0000
     9 C3          -8.9510   -17.6780     8.0980 C.ar         1 4UP301   0.0000
    10 C9          -4.9910   -17.6510     6.4410 C.ar         1 4UP301   0.0000
    11 C8          -4.1400   -16.6040     6.7400 C.ar         1 4UP301   0.0000
    12 C7          -4.5960   -15.5250     7.6090 C.ar         1 4UP301   0.0000
    13 C6          -5.8940   -15.5100     8.1290 C.ar         1 4UP301   0.0000
    14 C12         -3.6410   -14.4460     8.0330 C.3          1 4UP301   0.0000
    15 C13         -2.2660   -14.8660     8.5280 C.3          1 4UP301   0.0000
    16 O           -2.4660   -14.2590     7.2340 O.3          1 4UP301   0.0000
    17 C14         -1.5370   -14.0720     9.5710 C.ar         1 4UP301   0.0000
    18 C19         -0.8930   -14.7900    10.6140 C.ar         1 4UP301   0.0000
    19 C18         -0.2320   -14.0880    11.6370 C.ar         1 4UP301   0.0000
    20 C17         -0.2190   -12.6720    11.6250 C.ar         1 4UP301   0.0000
    21 C16         -0.8430   -11.9550    10.5850 C.ar         1 4UP301   0.0000
    22 C15         -1.5010   -12.6500     9.5440 C.ar         1 4UP301   0.0000
    23 H1         -10.9841   -18.6786     7.4812 H            1 4UP301   0.0000
    24 H2         -11.4392   -20.2280     6.8551 H            1 4UP301   0.0000
    25 H3          -8.0266   -21.1600     6.2532 H            1 4UP301   0.0000
    26 H4          -6.9142   -19.5094     6.1096 H            1 4UP301   0.0000
    27 H5          -8.4183   -15.8735     8.9814 H            1 4UP301   0.0000
    28 H6          -9.8709   -17.7022     8.4894 H            1 4UP301   0.0000
    29 H7          -4.6791   -18.3969     5.8525 H            1 4UP301   0.0000
    30 H8          -3.2145   -16.5862     6.3617 H            1 4UP301   0.0000
    31 H9          -6.1959   -14.7519     8.7070 H            1 4UP301   0.0000
    32 H10         -4.0396   -13.6280     8.4478 H            1 4UP301   0.0000
    33 H11         -2.0838   -15.8493     8.5237 H            1 4UP301   0.0000
    34 H12         -0.9098   -15.7898    10.6205 H            1 4UP301   0.0000
    35 H13          0.2279   -14.5873    12.3713 H            1 4UP301   0.0000
    36 H14          0.2382   -12.1755    12.3629 H            1 4UP301   0.0000
    37 H15         -0.8206   -10.9553    10.5830 H            1 4UP301   0.0000
    38 H16         -1.9363   -12.1475     8.7970 H            1 4UP301   0.0000
    39 H17         -9.6441   -21.7600     6.0988 H            1 4UP301   0.0000
@<TRIPOS>BOND
     1    1    2      ar
     2    2    3      ar
     3    2    4       1
     4    4    5      ar
     5    4    9      ar
     6    5    6      ar
     7    6    7      ar
     8    6   10      ar
     9    7    8      ar
    10    7   13      ar
    11    8    9      ar
    12   10   11      ar
    13   11   12      ar
    14   12   13      ar
    15   12   14       1
    16   14   15       1
    17   14   16       1
    18   15   16       1
    19   15   17       1
    20   17   18      ar
    21   17   22      ar
    22   18   19      ar
    23   19   20      ar
    24   20   21      ar
    25   21   22      ar
    26    1   23       1
    27    1   24       1
    28    3   25       1
    29    5   26       1
    30    8   27       1
    31    9   28       1
    32   10   29       1
    33   11   30       1
    34   13   31       1
    35   14   32       1
    36   15   33       1
    37   18   34       1
    38   19   35       1
    39   20   36       1
    40   21   37       1
    41   22   38       1
    42    3   39       1
@<TRIPOS>SUBSTRUCTURE
     1 4UP301      1 GROUP             4 A     4UP     0 **** 4UP A 301
