@<TRIPOS>MOLECULE
4ix6_ADP_1_ligand
   39    41     1     0     0
SMALL
NO_CHARGES


@<TRIPOS>ATOM
     1 PB          34.8870    38.3790    11.2570 P.3          1 ADP601   0.0000
     2 O1B         36.0890    38.6650    10.3810 O.co2        1 ADP601   0.0000
     3 O2B         33.7100    39.3050    11.0330 O.co2        1 ADP601  -1.0000
     4 O3B         34.5130    36.9160    11.3410 O.co2        1 ADP601  -1.0000
     5 PA          35.8610    40.1810    13.2270 P.3          1 ADP601   0.0000
     6 O1A         35.0460    41.2090    12.4740 O.co2        1 ADP601   0.0000
     7 O2A         37.3710    40.2720    13.2010 O.co2        1 ADP601  -1.0000
     8 O3A         35.3880    38.7110    12.7570 O.3          1 ADP601   0.0000
     9 O5'         35.3490    40.2070    14.7570 O.3          1 ADP601   0.0000
    10 C5'         36.0150    40.9010    15.8140 C.3          1 ADP601   0.0000
    11 C4'         34.8900    41.6410    16.5310 C.3          1 ADP601   0.0000
    12 O4'         35.2650    42.0980    17.8370 O.3          1 ADP601   0.0000
    13 C3'         34.4590    42.8550    15.7240 C.3          1 ADP601   0.0000
    14 O3'         33.0390    42.8550    15.5940 O.3          1 ADP601   0.0000
    15 C2'         34.8380    44.0280    16.5890 C.3          1 ADP601   0.0000
    16 O2'         33.9030    45.0940    16.4880 O.3          1 ADP601   0.0000
    17 C1'         34.8310    43.4500    17.9900 C.3          1 ADP601   0.0000
    18 N9          35.8100    44.1650    18.8240 N.pl3        1 ADP601   0.0000
    19 C8          37.1490    43.9920    18.7540 C.2          1 ADP601   0.0000
    20 N7          37.7640    44.7920    19.6490 N.2          1 ADP601   0.0000
    21 C5          36.8090    45.4680    20.3190 C.ar         1 ADP601   0.0000
    22 C6          36.7740    46.4730    21.3950 C.ar         1 ADP601   0.0000
    23 N6          37.9400    46.8840    21.9510 N.pl3        1 ADP601   0.0000
    24 N1          35.5640    46.9360    21.8060 N.ar         1 ADP601   0.0000
    25 C2          34.4100    46.5060    21.2560 C.ar         1 ADP601   0.0000
    26 N3          34.3690    45.5880    20.2680 N.ar         1 ADP601   0.0000
    27 C4          35.5160    45.0570    19.7690 C.ar         1 ADP601   0.0000
    28 H5'1        36.6882    41.5441    15.4490 H            1 ADP601   0.0000
    29 H5'2        36.4686    40.2584    16.4315 H            1 ADP601   0.0000
    30 H4'         34.1085    41.0237    16.6210 H            1 ADP601   0.0000
    31 H3'         34.9130    42.8887    14.8336 H            1 ADP601   0.0000
    32 H5          32.7831    43.2948    14.7331 H            1 ADP601   0.0000
    33 H2'         35.7550    44.3494    16.3526 H            1 ADP601   0.0000
    34 H7          34.1930    45.8487    17.0765 H            1 ADP601   0.0000
    35 H1'         33.9164    43.4915    18.3923 H            1 ADP601   0.0000
    36 H9          37.6147    43.3637    18.1307 H            1 ADP601   0.0000
    37 H10         37.9322    47.5658    22.6825 H            1 ADP601   0.0000
    38 H11         38.8080    46.5054    21.6296 H            1 ADP601   0.0000
    39 H12         33.5482    46.8836    21.5948 H            1 ADP601   0.0000
@<TRIPOS>BOND
     1    1    2      ar
     2    1    3      ar
     3    1    4      ar
     4    1    8       1
     5    5    6      ar
     6    5    7      ar
     7    5    8       1
     8    5    9       1
     9    9   10       1
    10   10   11       1
    11   11   12       1
    12   11   13       1
    13   12   17       1
    14   13   14       1
    15   13   15       1
    16   15   16       1
    17   15   17       1
    18   17   18       1
    19   18   19       1
    20   18   27       1
    21   19   20       2
    22   20   21       1
    23   21   22      ar
    24   21   27      ar
    25   22   23       1
    26   22   24      ar
    27   24   25      ar
    28   25   26      ar
    29   26   27      ar
    30   25   39       1
    31   23   38       1
    32   23   37       1
    33   10   28       1
    34   10   29       1
    35   11   30       1
    36   13   31       1
    37   14   32       1
    38   15   33       1
    39   16   34       1
    40   17   35       1
    41   19   36       1
@<TRIPOS>SUBSTRUCTURE
     1 ADP601      1 GROUP             4 A     ADP     0 **** ADP A 601
