@<TRIPOS>MOLECULE
2ble_5GP_1_ligand
   36    38     1     0     0
SMALL
NO_CHARGES


@<TRIPOS>ATOM
     1 P           57.9370    22.4050    13.2010 P.3          1 5GP1344   0.0000
     2 O1P         56.6000    23.0020    13.4820 O.co2        1 5GP1344   0.0000
     3 O2P         58.2920    22.4690    11.7330 O.co2        1 5GP1344  -1.0000
     4 O3P         58.1070    21.0030    13.7540 O.co2        1 5GP1344  -1.0000
     5 O5'         59.0370    23.2500    14.0000 O.3          1 5GP1344   0.0000
     6 C5'         59.1850    24.6640    13.8390 C.3          1 5GP1344   0.0000
     7 C4'         60.5100    25.1120    14.4290 C.3          1 5GP1344   0.0000
     8 O4'         61.6290    24.4290    13.8310 O.3          1 5GP1344   0.0000
     9 C3'         60.8720    26.5990    14.2790 C.3          1 5GP1344   0.0000
    10 O3'         60.0870    27.4890    15.1210 O.3          1 5GP1344   0.0000
    11 C2'         62.3050    26.5390    14.7540 C.3          1 5GP1344   0.0000
    12 O2'         62.2870    26.5930    16.2210 O.3          1 5GP1344   0.0000
    13 C1'         62.8000    25.1780    14.2390 C.3          1 5GP1344   0.0000
    14 N9          63.7590    25.2920    13.0890 N.pl3        1 5GP1344   0.0000
    15 C8          63.5300    25.7220    11.8370 C.2          1 5GP1344   0.0000
    16 N7          64.6640    25.6640    11.0940 N.2          1 5GP1344   0.0000
    17 C5          65.6250    25.1650    11.9210 C.2          1 5GP1344   0.0000
    18 C6          66.9870    24.9030    11.7810 C.2          1 5GP1344   0.0000
    19 O6          67.5420    25.0980    10.6680 O.2          1 5GP1344   0.0000
    20 N1          67.6750    24.4020    12.8490 N.pl3        1 5GP1344   0.0000
    21 C2          67.0750    24.1900    14.0280 C.2          1 5GP1344   0.0000
    22 N2          67.7880    23.7320    15.0760 N.pl3        1 5GP1344   0.0000
    23 N3          65.7530    24.4830    14.2100 N.2          1 5GP1344   0.0000
    24 C4          65.0340    24.9440    13.1690 C.2          1 5GP1344   0.0000
    25 H5'1        58.4368    25.1319    14.3094 H            1 5GP1344   0.0000
    26 H5'2        59.1609    24.8917    12.8656 H            1 5GP1344   0.0000
    27 H4'         60.5019    24.8940    15.4049 H            1 5GP1344   0.0000
    28 H3'         60.8258    26.8821    13.3210 H            1 5GP1344   0.0000
    29 H5          59.4368    26.9520    15.6584 H            1 5GP1344   0.0000
    30 H2'         62.8447    27.2887    14.3710 H            1 5GP1344   0.0000
    31 H7          61.4930    27.1192    16.5255 H            1 5GP1344   0.0000
    32 H1'         63.2498    24.6924    14.9886 H            1 5GP1344   0.0000
    33 H9          62.6447    26.0412    11.4988 H            1 5GP1344   0.0000
    34 H10         68.6469    24.1889    12.7490 H            1 5GP1344   0.0000
    35 H11         67.3390    23.5742    15.9555 H            1 5GP1344   0.0000
    36 H12         68.7660    23.5500    14.9741 H            1 5GP1344   0.0000
@<TRIPOS>BOND
     1    1    2      ar
     2    1    3      ar
     3    1    4      ar
     4    1    5       1
     5    5    6       1
     6    6    7       1
     7    7    8       1
     8    7    9       1
     9    8   13       1
    10    9   10       1
    11    9   11       1
    12   11   12       1
    13   11   13       1
    14   13   14       1
    15   14   15       1
    16   14   24       1
    17   15   16       2
    18   16   17       1
    19   17   18       1
    20   17   24       2
    21   18   19       2
    22   18   20       1
    23   20   21       1
    24   21   22       1
    25   21   23       2
    26   23   24       1
    27   22   36       1
    28   22   35       1
    29    6   25       1
    30    6   26       1
    31    7   27       1
    32    9   28       1
    33   10   29       1
    34   11   30       1
    35   12   31       1
    36   13   32       1
    37   15   33       1
    38   20   34       1
@<TRIPOS>SUBSTRUCTURE
     1 5GP1344     1 GROUP             4 A     5GP     0 **** 5GP A1344
