@<TRIPOS>MOLECULE
2h63_NAP_3_ligand
   73    77     1     0     0
SMALL
NO_CHARGES


@<TRIPOS>ATOM
     1 PA           6.7600     4.6950    24.1000 P.3          1 NAP501   0.0000
     2 O1A          6.3180     5.6750    25.1130 O.co2        1 NAP501   0.0000
     3 O2A          5.8530     4.3670    22.9710 O.co2        1 NAP501  -1.0000
     4 O5B          7.1800     3.2660    24.6970 O.3          1 NAP501   0.0000
     5 C5B          8.2520     3.0370    25.6450 C.3          1 NAP501   0.0000
     6 C4B          7.7970     1.9360    26.6810 C.3          1 NAP501   0.0000
     7 O4B          6.5830     2.3100    27.4190 O.3          1 NAP501   0.0000
     8 C3B          7.3550     0.6400    25.9900 C.3          1 NAP501   0.0000
     9 O3B          8.5060    -0.1730    25.6790 O.3          1 NAP501   0.0000
    10 C2B          6.4300    -0.0080    27.0380 C.3          1 NAP501   0.0000
    11 O2B          7.1930    -0.9340    27.7740 O.3          1 NAP501   0.0000
    12 C1B          6.0850     1.1190    28.0220 C.3          1 NAP501   0.0000
    13 N9A          4.6160     1.2680    28.2350 N.pl3        1 NAP501   0.0000
    14 C8A          4.0030     1.3390    29.4310 C.2          1 NAP501   0.0000
    15 N7A          2.6810     1.4740    29.2590 N.2          1 NAP501   0.0000
    16 C5A          2.4470     1.4890    27.9500 C.ar         1 NAP501   0.0000
    17 C6A          1.2870     1.6050    27.1860 C.ar         1 NAP501   0.0000
    18 N6A          0.1080     1.7170    27.7830 N.pl3        1 NAP501   0.0000
    19 N1A          1.3790     1.5730    25.8400 N.ar         1 NAP501   0.0000
    20 C2A          2.5680     1.4460    25.2550 C.ar         1 NAP501   0.0000
    21 N3A          3.6970     1.3410    25.9570 N.ar         1 NAP501   0.0000
    22 C4A          3.6710     1.3570    27.2970 C.ar         1 NAP501   0.0000
    23 O3           8.2450     5.2360    23.6850 O.3          1 NAP501   0.0000
    24 PN           8.6860     5.1890    22.1280 P.3          1 NAP501   0.0000
    25 O1N          8.2470     6.4140    21.4200 O.co2        1 NAP501   0.0000
    26 O2N          8.2230     3.8570    21.6570 O.co2        1 NAP501  -1.0000
    27 O5D         10.2650     5.3100    22.3290 O.3          1 NAP501   0.0000
    28 C5D         10.9460     4.2670    22.8780 C.3          1 NAP501   0.0000
    29 C4D         12.3440     4.3420    22.3560 C.3          1 NAP501   0.0000
    30 O4D         12.1410     4.6380    20.9620 O.3          1 NAP501   0.0000
    31 C3D         13.0400     5.5760    22.9530 C.3          1 NAP501   0.0000
    32 O3D         14.4760     5.4050    23.0090 O.3          1 NAP501   0.0000
    33 C2D         12.7720     6.6310    21.9320 C.3          1 NAP501   0.0000
    34 O2D         13.8300     7.5800    22.1150 O.3          1 NAP501   0.0000
    35 C1D         12.9890     5.7600    20.6910 C.3          1 NAP501   0.0000
    36 N1N         12.5250     6.2430    19.3720 N.ar         1 NAP501   1.0000
    37 C2N         11.1600     6.3540    19.0960 C.ar         1 NAP501   0.0000
    38 C3N         10.7460     6.7950    17.8530 C.ar         1 NAP501   0.0000
    39 C7N          9.2450     6.9770    17.4850 C.2          1 NAP501   0.0000
    40 O7N          8.8910     7.2200    16.3320 O.2          1 NAP501   0.0000
    41 N7N          8.3590     6.8910    18.4730 N.am         1 NAP501   0.0000
    42 C4N         11.7230     7.1030    16.9160 C.ar         1 NAP501   0.0000
    43 C5N         13.0830     6.9750    17.1630 C.ar         1 NAP501   0.0000
    44 C6N         13.4970     6.5420    18.4080 C.ar         1 NAP501   0.0000
    45 P2B          6.6090    -2.3380    28.2640 P.3          1 NAP501   0.0000
    46 O1X          5.3600    -1.8890    29.2150 O.co2        1 NAP501   0.0000
    47 O2X          5.9020    -3.1000    27.0400 O.co2        1 NAP501  -1.0000
    48 O3X          7.7340    -3.0990    28.8550 O.co2        1 NAP501  -1.0000
    49 H5B1         8.4588     3.8874    26.1289 H            1 NAP501   0.0000
    50 H5B2         9.0677     2.7232    25.1591 H            1 NAP501   0.0000
    51 H4B          8.5399     1.7439    27.3223 H            1 NAP501   0.0000
    52 H3B          6.8426     0.8486    25.1570 H            1 NAP501   0.0000
    53 H5           8.2077    -1.0149    25.2292 H            1 NAP501   0.0000
    54 H2B          5.6168    -0.4212    26.6282 H            1 NAP501   0.0000
    55 H1B          6.5431     0.9613    28.8968 H            1 NAP501   0.0000
    56 H8A          4.4655     1.2972    30.3166 H            1 NAP501   0.0000
    57 H6A1        -0.7242     1.8002    27.2347 H            1 NAP501   0.0000
    58 H6A2         0.0512     1.7182    28.7814 H            1 NAP501   0.0000
    59 H2A          2.6162     1.4288    24.2563 H            1 NAP501   0.0000
    60 H5D1        10.5242     3.4009    22.6095 H            1 NAP501   0.0000
    61 H5D2        10.9463     4.3427    23.8751 H            1 NAP501   0.0000
    62 H4D         12.8588     3.4973    22.5024 H            1 NAP501   0.0000
    63 H3D         12.6608     5.8195    23.8457 H            1 NAP501   0.0000
    64 H16         14.8434     5.9226    23.7817 H            1 NAP501   0.0000
    65 H2D         11.8566     7.0290    21.9920 H            1 NAP501   0.0000
    66 H18         14.6049     7.3315    21.5339 H            1 NAP501   0.0000
    67 H1D         13.9436     5.4672    20.6362 H            1 NAP501   0.0000
    68 H2N         10.4854     6.1155    19.7946 H            1 NAP501   0.0000
    69 H7N1         7.3838     7.0017    18.2811 H            1 NAP501   0.0000
    70 H7N2         8.6679     6.7157    19.4078 H            1 NAP501   0.0000
    71 H4N         11.4325     7.4337    16.0181 H            1 NAP501   0.0000
    72 H5N         13.7517     7.1925    16.4520 H            1 NAP501   0.0000
    73 H6N         14.4700     6.4440    18.6168 H            1 NAP501   0.0000
@<TRIPOS>BOND
     1    1    2      ar
     2    1    3      ar
     3    1    4       1
     4    1   23       1
     5    4    5       1
     6    5    6       1
     7    6    7       1
     8    6    8       1
     9    7   12       1
    10    8    9       1
    11    8   10       1
    12   10   11       1
    13   10   12       1
    14   11   45       1
    15   12   13       1
    16   13   14       1
    17   13   22       1
    18   14   15       2
    19   15   16       1
    20   16   17      ar
    21   16   22      ar
    22   17   18       1
    23   17   19      ar
    24   19   20      ar
    25   20   21      ar
    26   21   22      ar
    27   23   24       1
    28   24   25      ar
    29   24   26      ar
    30   24   27       1
    31   27   28       1
    32   28   29       1
    33   29   30       1
    34   29   31       1
    35   30   35       1
    36   31   32       1
    37   31   33       1
    38   33   34       1
    39   33   35       1
    40   35   36       1
    41   36   37      ar
    42   36   44      ar
    43   37   38      ar
    44   38   39       1
    45   38   42      ar
    46   39   40       2
    47   39   41      am
    48   42   43      ar
    49   43   44      ar
    50   45   46      ar
    51   45   47      ar
    52   45   48      ar
    53   43   72       1
    54    5   49       1
    55    5   50       1
    56    6   51       1
    57    8   52       1
    58    9   53       1
    59   10   54       1
    60   12   55       1
    61   14   56       1
    62   18   57       1
    63   18   58       1
    64   20   59       1
    65   44   73       1
    66   28   60       1
    67   28   61       1
    68   29   62       1
    69   31   63       1
    70   32   64       1
    71   33   65       1
    72   34   66       1
    73   35   67       1
    74   37   68       1
    75   41   69       1
    76   41   70       1
    77   42   71       1
@<TRIPOS>SUBSTRUCTURE
     1 NAP501      1 GROUP             4 C     NAP     0 **** NAP C 501
