@<TRIPOS>MOLECULE
5kbw_RBF_1_ligand
   47    49     1     0     0
SMALL
NO_CHARGES


@<TRIPOS>ATOM
     1 N1         -24.3150    -2.5220    83.3730 N.2          1 RBF201   0.0000
     2 C2         -23.5340    -3.5210    82.8970 C.2          1 RBF201   0.0000
     3 O2         -23.0770    -4.3170    83.6360 O.2          1 RBF201   0.0000
     4 N3         -23.2720    -3.6070    81.5630 N.pl3        1 RBF201   0.0000
     5 C4         -23.7820    -2.7220    80.7320 C.2          1 RBF201   0.0000
     6 O4         -23.5590    -2.8010    79.5940 O.2          1 RBF201   0.0000
     7 C4A        -24.5910    -1.6960    81.2170 C.2          1 RBF201   0.0000
     8 N5         -25.1180    -0.7730    80.3430 N.2          1 RBF201   0.0000
     9 C5A        -25.8920     0.2250    80.8030 C.ar         1 RBF201   0.0000
    10 C6         -26.4270     1.1670    79.8800 C.ar         1 RBF201   0.0000
    11 C7         -27.2370     2.2120    80.3320 C.ar         1 RBF201   0.0000
    12 C7M        -27.7180     3.1110    79.2530 C.3          1 RBF201   0.0000
    13 C8         -27.5220     2.3330    81.6880 C.ar         1 RBF201   0.0000
    14 C8M        -28.4030     3.4600    82.2600 C.3          1 RBF201   0.0000
    15 C9         -26.9970     1.4040    82.5980 C.ar         1 RBF201   0.0000
    16 C9A        -26.1670     0.3310    82.1460 C.ar         1 RBF201   0.0000
    17 N10        -25.6410    -0.5670    83.0060 N.pl3        1 RBF201   0.0000
    18 C10        -24.8460    -1.6000    82.5210 C.2          1 RBF201   0.0000
    19 C1'        -25.7490    -0.7510    84.4770 C.3          1 RBF201   0.0000
    20 C2'        -25.3510     0.4840    85.3450 C.3          1 RBF201   0.0000
    21 O2'        -24.0610     0.3440    85.8090 O.3          1 RBF201   0.0000
    22 C3'        -26.3250     0.5250    86.5320 C.3          1 RBF201   0.0000
    23 O3'        -27.6090     0.1580    86.0850 O.3          1 RBF201   0.0000
    24 C4'        -26.4030     1.8990    87.1530 C.3          1 RBF201   0.0000
    25 O4'        -27.4360     1.9010    88.1390 O.3          1 RBF201   0.0000
    26 C5'        -26.7380     2.9610    86.0720 C.3          1 RBF201   0.0000
    27 O5'        -26.8730     4.2570    86.7020 O.3          1 RBF201   0.0000
    28 H1         -22.6917    -4.3430    81.2144 H            1 RBF201   0.0000
    29 H2         -26.2226     1.0807    78.9049 H            1 RBF201   0.0000
    30 H7M1       -28.2884     3.8309    79.6485 H            1 RBF201   0.0000
    31 H7M2       -26.9343     3.5238    78.7890 H            1 RBF201   0.0000
    32 H7M3       -28.2554     2.5838    78.5947 H            1 RBF201   0.0000
    33 H8M1       -28.4752     3.3558    83.2519 H            1 RBF201   0.0000
    34 H8M2       -27.9909     4.3459    82.0470 H            1 RBF201   0.0000
    35 H8M3       -29.3147     3.4099    81.8523 H            1 RBF201   0.0000
    36 H9         -27.2051     1.4928    83.5721 H            1 RBF201   0.0000
    37 H1'1       -25.1549    -1.5126    84.7358 H            1 RBF201   0.0000
    38 H1'2       -26.6986    -0.9821    84.6888 H            1 RBF201   0.0000
    39 H2'        -25.4322     1.3223    84.8059 H            1 RBF201   0.0000
    40 H13        -24.0733    -0.1265    86.6913 H            1 RBF201   0.0000
    41 H3'        -26.0219    -0.1291    87.2250 H            1 RBF201   0.0000
    42 H15        -28.2490     0.1825    86.8530 H            1 RBF201   0.0000
    43 H4'        -25.5284     2.1227    87.5832 H            1 RBF201   0.0000
    44 H17        -27.0451     2.1286    89.0308 H            1 RBF201   0.0000
    45 H5'1       -27.5961     2.7183    85.6196 H            1 RBF201   0.0000
    46 H5'2       -26.0021     2.9932    85.3957 H            1 RBF201   0.0000
    47 H5'        -27.6087     4.2238    87.3785 H            1 RBF201   0.0000
@<TRIPOS>BOND
     1    1    2       1
     2    1   18       2
     3    2    3       2
     4    2    4       1
     5    4    5       1
     6    5    6       2
     7    5    7       1
     8    7    8       2
     9    7   18       1
    10    8    9       1
    11    9   10      ar
    12    9   16      ar
    13   10   11      ar
    14   11   12       1
    15   11   13      ar
    16   13   14       1
    17   13   15      ar
    18   15   16      ar
    19   16   17       1
    20   17   18       1
    21   17   19       1
    22   19   20       1
    23   20   21       1
    24   20   22       1
    25   22   23       1
    26   22   24       1
    27   24   25       1
    28   24   26       1
    29   26   27       1
    30    4   28       1
    31   10   29       1
    32   12   30       1
    33   12   31       1
    34   12   32       1
    35   14   33       1
    36   14   34       1
    37   14   35       1
    38   15   36       1
    39   19   37       1
    40   19   38       1
    41   20   39       1
    42   21   40       1
    43   22   41       1
    44   23   42       1
    45   24   43       1
    46   25   44       1
    47   26   45       1
    48   26   46       1
    49   27   47       1
@<TRIPOS>SUBSTRUCTURE
     1 RBF201      1 GROUP             4 B     RBF     0 **** RBF B 201
