@<TRIPOS>MOLECULE
3tlx_ADP_1_ligand
   39    41     1     0     0
SMALL
NO_CHARGES


@<TRIPOS>ATOM
     1 PB          -4.1580   -18.4720    -3.9670 P.3          1 ADP246   0.0000
     2 O1B         -5.3680   -18.2270    -4.8380 O.co2        1 ADP246   0.0000
     3 O2B         -3.7100   -17.2270    -3.2290 O.co2        1 ADP246  -1.0000
     4 O3B         -3.0810   -19.2110    -4.7240 O.co2        1 ADP246  -1.0000
     5 PA          -5.1000   -19.1080    -1.3250 P.3          1 ADP246   0.0000
     6 O1A         -5.7070   -17.7160    -1.3620 O.co2        1 ADP246   0.0000
     7 O2A         -3.9420   -19.2760    -0.3970 O.co2        1 ADP246  -1.0000
     8 O3A         -4.6170   -19.5230    -2.8150 O.3          1 ADP246   0.0000
     9 O5'         -6.3120   -20.1030    -0.9470 O.3          1 ADP246   0.0000
    10 C5'         -6.3580   -21.5160    -1.1600 C.3          1 ADP246   0.0000
    11 C4'         -7.6440   -22.0570    -0.5250 C.3          1 ADP246   0.0000
    12 O4'         -7.3490   -23.3140     0.0730 O.3          1 ADP246   0.0000
    13 C3'         -8.1030   -21.2080     0.6580 C.3          1 ADP246   0.0000
    14 O3'         -9.4720   -21.4720     0.9470 O.3          1 ADP246   0.0000
    15 C2'         -7.2340   -21.6940     1.8030 C.3          1 ADP246   0.0000
    16 O2'         -7.8210   -21.5320     3.1060 O.3          1 ADP246   0.0000
    17 C1'         -7.0100   -23.1530     1.4550 C.3          1 ADP246   0.0000
    18 N9          -5.5880   -23.5420     1.5950 N.pl3        1 ADP246   0.0000
    19 C8          -4.5120   -22.7580     1.4070 C.2          1 ADP246   0.0000
    20 N7          -3.3740   -23.4780     1.5000 N.2          1 ADP246   0.0000
    21 C5          -3.7180   -24.7620     1.7060 C.ar         1 ADP246   0.0000
    22 C6          -3.0170   -26.0580     1.8860 C.ar         1 ADP246   0.0000
    23 N6          -1.6620   -26.1240     1.8990 N.pl3        1 ADP246   0.0000
    24 N1          -3.7820   -27.1640     2.0780 N.ar         1 ADP246   0.0000
    25 C2          -5.1250   -27.1260     2.0690 C.ar         1 ADP246   0.0000
    26 N3          -5.8150   -25.9830     1.9020 N.ar         1 ADP246   0.0000
    27 C4          -5.1840   -24.7980     1.7250 C.ar         1 ADP246   0.0000
    28 H5'1        -5.5630   -21.9482    -0.7343 H            1 ADP246   0.0000
    29 H5'2        -6.3576   -21.7102    -2.1410 H            1 ADP246   0.0000
    30 H4'         -8.3707   -22.1456    -1.2063 H            1 ADP246   0.0000
    31 H3'         -7.9540   -20.2350     0.4815 H            1 ADP246   0.0000
    32 H5          -9.7630   -20.9117     1.7225 H            1 ADP246   0.0000
    33 H2'         -6.3579   -21.2127     1.7764 H            1 ADP246   0.0000
    34 H7          -7.1890   -21.8744     3.8012 H            1 ADP246   0.0000
    35 H1'         -7.5875   -23.7381     2.0244 H            1 ADP246   0.0000
    36 H9          -4.5496   -21.7757     1.2234 H            1 ADP246   0.0000
    37 H10         -1.2055   -27.0053     2.0213 H            1 ADP246   0.0000
    38 H11         -1.1197   -25.2914     1.7862 H            1 ADP246   0.0000
    39 H12         -5.6311   -27.9798     2.1911 H            1 ADP246   0.0000
@<TRIPOS>BOND
     1    1    2      ar
     2    1    3      ar
     3    1    4      ar
     4    1    8       1
     5    5    6      ar
     6    5    7      ar
     7    5    8       1
     8    5    9       1
     9    9   10       1
    10   10   11       1
    11   11   12       1
    12   11   13       1
    13   12   17       1
    14   13   14       1
    15   13   15       1
    16   15   16       1
    17   15   17       1
    18   17   18       1
    19   18   19       1
    20   18   27       1
    21   19   20       2
    22   20   21       1
    23   21   22      ar
    24   21   27      ar
    25   22   23       1
    26   22   24      ar
    27   24   25      ar
    28   25   26      ar
    29   26   27      ar
    30   25   39       1
    31   23   38       1
    32   23   37       1
    33   10   28       1
    34   10   29       1
    35   11   30       1
    36   13   31       1
    37   14   32       1
    38   15   33       1
    39   16   34       1
    40   17   35       1
    41   19   36       1
@<TRIPOS>SUBSTRUCTURE
     1 ADP246      1 GROUP             4 A     ADP     0 **** ADP A 246
