@<TRIPOS>MOLECULE
3kds_NHX_3_ligand
   64    65     1     0     0
SMALL
NO_CHARGES


@<TRIPOS>ATOM
     1 C           31.6230   119.7760    50.5020 C.2          1 NHX998   0.0000
     2 N           32.9120   117.7040    49.9400 N.am         1 NHX998   0.0000
     3 O           30.7580   119.9550    49.6430 O.2          1 NHX998   0.0000
     4 CA          32.9970   119.1600    50.1260 C.3          1 NHX998   0.0000
     5 CB          33.4770   119.7780    48.8450 C.3          1 NHX998   0.0000
     6 CAA         37.5360   114.7830    54.2570 C.3          1 NHX998   0.0000
     7 CAB         35.1140   114.9390    54.8650 C.3          1 NHX998   0.0000
     8 NAD         31.4750   120.1060    51.7890 N.am         1 NHX998   0.0000
     9 OAF         33.9650   110.7130    54.2840 O.2          1 NHX998   0.0000
    10 OAG         34.8920   114.3430    50.7000 O.2          1 NHX998   0.0000
    11 OAH         32.1600   117.2930    52.0340 O.2          1 NHX998   0.0000
    12 OAI         36.1340   109.4650    54.1440 O.3          1 NHX998  -1.0000
    13 CAJ         31.8130   109.3220    46.8650 C.ar         1 NHX998   0.0000
    14 CAK         32.0610   110.3710    45.9720 C.ar         1 NHX998   0.0000
    15 CAL         30.8830   112.4920    50.3730 C.ar         1 NHX998   0.0000
    16 CAM         31.4560   109.5900    48.1920 C.ar         1 NHX998   0.0000
    17 CAN         31.9520   111.6860    46.4300 C.ar         1 NHX998   0.0000
    18 CAO         30.9900   111.1780    49.9460 C.ar         1 NHX998   0.0000
    19 CAP         31.5110   113.2640    48.2000 C.ar         1 NHX998   0.0000
    20 CAQ         34.2460   111.7950    52.1750 C.3          1 NHX998   0.0000
    21 CAR         31.0370   114.9770    50.0320 C.3          1 NHX998   0.0000
    22 CAS         35.8890   113.2770    53.2230 C.3          1 NHX998   0.0000
    23 NAT         35.8000   110.2840    53.1250 N.am         1 NHX998   0.0000
    24 NAV         32.8720   114.5320    51.5520 N.am         1 NHX998   0.0000
    25 CAX         34.6880   110.8780    53.2840 C.2          1 NHX998   0.0000
    26 CAY         34.0950   114.0980    51.5750 C.2          1 NHX998   0.0000
    27 CAZ         32.4470   116.9030    50.9020 C.2          1 NHX998   0.0000
    28 CBA         31.1360   113.5360    49.5060 C.ar         1 NHX998   0.0000
    29 CBB         31.3490   110.9060    48.6350 C.ar         1 NHX998   0.0000
    30 CBC         31.6050   111.9520    47.7570 C.ar         1 NHX998   0.0000
    31 CBD         36.1170   114.6590    53.7580 C.3          1 NHX998   0.0000
    32 CBF         34.4520   113.1870    52.6850 C.3          1 NHX998   0.0000
    33 CBG         32.4580   115.4300    50.4930 C.3          1 NHX998   0.0000
    34 H1          33.2093   117.3042    49.0729 H            1 NHX998   0.0000
    35 HA          33.6549   119.3594    50.8523 H            1 NHX998   0.0000
    36 HB1         34.3625   119.3853    48.5967 H            1 NHX998   0.0000
    37 HB2         32.8154   119.5945    48.1180 H            1 NHX998   0.0000
    38 HB3         33.5729   120.7659    48.9669 H            1 NHX998   0.0000
    39 HAA1        38.1706   114.5935    53.5077 H            1 NHX998   0.0000
    40 HAA2        37.6897   115.7106    54.5975 H            1 NHX998   0.0000
    41 HAA3        37.6879   114.1270    54.9964 H            1 NHX998   0.0000
    42 HAB1        34.1857   114.8492    54.5042 H            1 NHX998   0.0000
    43 HAB2        35.2473   114.2842    55.6090 H            1 NHX998   0.0000
    44 HAB3        35.2491   115.8678    55.2102 H            1 NHX998   0.0000
    45 HAD1        32.2164   119.9343    52.4377 H            1 NHX998   0.0000
    46 HAD2        30.6228   120.5246    52.1030 H            1 NHX998   0.0000
    47 HAJ         31.8913   108.3751    46.5532 H            1 NHX998   0.0000
    48 HAK         32.3119   110.1822    45.0226 H            1 NHX998   0.0000
    49 HAL         30.6200   112.6858    51.3181 H            1 NHX998   0.0000
    50 HAM         31.2775   108.8350    48.8230 H            1 NHX998   0.0000
    51 HAN         32.1241   112.4448    45.8018 H            1 NHX998   0.0000
    52 HAO         30.8087   110.4279    50.5820 H            1 NHX998   0.0000
    53 HAP         31.7148   114.0165    47.5738 H            1 NHX998   0.0000
    54 HAQ1        33.2811   111.6423    51.9615 H            1 NHX998   0.0000
    55 HAQ2        34.7974   111.6400    51.3553 H            1 NHX998   0.0000
    56 HAR1        30.4037   115.0119    50.8051 H            1 NHX998   0.0000
    57 HAR2        30.7091   115.5804    49.3051 H            1 NHX998   0.0000
    58 HAS1        36.0167   112.6076    53.9549 H            1 NHX998   0.0000
    59 HAS2        36.5370   113.0911    52.4844 H            1 NHX998   0.0000
    60 HAT         36.3757   110.4120    52.3174 H            1 NHX998   0.0000
    61 HAV         32.2223   114.2496    52.2578 H            1 NHX998   0.0000
    62 HBD         35.9755   115.3185    53.0197 H            1 NHX998   0.0000
    63 HBF         33.8185   113.3451    53.4424 H            1 NHX998   0.0000
    64 HBG         33.0879   115.3215    49.7240 H            1 NHX998   0.0000
@<TRIPOS>BOND
     1    1    3       2
     2    1    4       1
     3    1    8      am
     4    2    4       1
     5    2   27      am
     6    4    5       1
     7    6   31       1
     8    7   31       1
     9    9   25       2
    10   10   26       2
    11   11   27       2
    12   12   23       1
    13   13   14      ar
    14   13   16      ar
    15   14   17      ar
    16   15   18      ar
    17   15   28      ar
    18   16   29      ar
    19   17   30      ar
    20   18   29      ar
    21   19   28      ar
    22   19   30      ar
    23   20   25       1
    24   20   32       1
    25   21   28       1
    26   21   33       1
    27   22   31       1
    28   22   32       1
    29   23   25      am
    30   24   26      am
    31   24   33       1
    32   26   32       1
    33   27   33       1
    34   29   30      ar
    35    2   34       1
    36    4   35       1
    37    5   36       1
    38    5   37       1
    39    5   38       1
    40    6   39       1
    41    6   40       1
    42    6   41       1
    43    7   42       1
    44    7   43       1
    45    7   44       1
    46    8   45       1
    47    8   46       1
    48   33   64       1
    49   13   47       1
    50   14   48       1
    51   15   49       1
    52   16   50       1
    53   17   51       1
    54   18   52       1
    55   19   53       1
    56   20   54       1
    57   20   55       1
    58   21   56       1
    59   21   57       1
    60   22   58       1
    61   22   59       1
    62   23   60       1
    63   24   61       1
    64   31   62       1
    65   32   63       1
@<TRIPOS>SUBSTRUCTURE
     1 NHX998      1 GROUP             4 G     NHX     0 **** NHX G 998
