@<TRIPOS>MOLECULE
1ri3_SAH_1_ligand
   46    48     1     0     0
SMALL
NO_CHARGES


@<TRIPOS>ATOM
     1 N           13.2380    29.9270    91.1340 N.4          1 SAH299   1.0000
     2 CA          14.0880    30.8470    92.0110 C.3          1 SAH299   0.0000
     3 CB          15.4120    31.2700    91.5280 C.3          1 SAH299   0.0000
     4 CG          16.4440    30.2720    91.1840 C.3          1 SAH299   0.0000
     5 SD          17.4580    31.0420    89.8580 S.3          1 SAH299   0.0000
     6 C           13.2740    32.1530    92.2950 C.2          1 SAH299   0.0000
     7 O           12.1370    32.2920    91.8160 O.co2        1 SAH299   0.0000
     8 OXT         13.8840    33.0210    93.0400 O.co2        1 SAH299  -1.0000
     9 C5'         17.5720    29.7360    88.7200 C.3          1 SAH299   0.0000
    10 C4'         17.8280    28.3390    89.4150 C.3          1 SAH299   0.0000
    11 O4'         17.9170    27.4530    88.3420 O.3          1 SAH299   0.0000
    12 C3'         19.1500    28.1920    90.1630 C.3          1 SAH299   0.0000
    13 O3'         18.8870    27.9540    91.5330 O.3          1 SAH299   0.0000
    14 C2'         19.8110    26.9880    89.3900 C.3          1 SAH299   0.0000
    15 O2'         20.6070    26.1630    90.2210 O.3          1 SAH299   0.0000
    16 C1'         18.5880    26.2770    88.8270 C.3          1 SAH299   0.0000
    17 N9          18.8340    25.4010    87.8690 N.pl3        1 SAH299   0.0000
    18 C8          19.6060    25.3840    86.7280 C.2          1 SAH299   0.0000
    19 N7          19.5600    24.2750    86.0590 N.2          1 SAH299   0.0000
    20 C5          18.6680    23.4540    86.8060 C.ar         1 SAH299   0.0000
    21 C6          18.1960    22.1150    86.6020 C.ar         1 SAH299   0.0000
    22 N6          18.5640    21.3470    85.5700 N.pl3        1 SAH299   0.0000
    23 N1          17.3130    21.6610    87.5650 N.ar         1 SAH299   0.0000
    24 C2          16.9100    22.4030    88.6300 C.ar         1 SAH299   0.0000
    25 N3          17.3440    23.6760    88.8630 N.ar         1 SAH299   0.0000
    26 C4          18.2120    24.1390    87.9020 C.ar         1 SAH299   0.0000
    27 H1          12.3733    29.7310    91.5965 H            1 SAH299   0.0000
    28 H2          13.0541    30.3763    90.2597 H            1 SAH299   0.0000
    29 HA          14.2237    30.3833    92.8866 H            1 SAH299   0.0000
    30 HB1         15.8036    31.8514    92.2412 H            1 SAH299   0.0000
    31 HB2         15.2548    31.8138    90.7036 H            1 SAH299   0.0000
    32 HG1         16.0181    29.4300    90.8528 H            1 SAH299   0.0000
    33 HG2         17.0108    30.0673    91.9820 H            1 SAH299   0.0000
    34 H5'1        18.3275    29.9240    88.0924 H            1 SAH299   0.0000
    35 H5'2        16.7161    29.6849    88.2054 H            1 SAH299   0.0000
    36 H4'         17.0603    28.0961    90.0080 H            1 SAH299   0.0000
    37 H3'         19.7028    29.0183    90.0549 H            1 SAH299   0.0000
    38 H12         18.3525    27.1143    91.6288 H            1 SAH299   0.0000
    39 H2'         20.3679    27.3401    88.6377 H            1 SAH299   0.0000
    40 H14         20.0408    25.7796    90.9507 H            1 SAH299   0.0000
    41 H1'         18.0609    25.8519    89.5628 H            1 SAH299   0.0000
    42 H16         20.1584    26.1658    86.4388 H            1 SAH299   0.0000
    43 H17         18.2000    20.4198    85.4820 H            1 SAH299   0.0000
    44 H18         19.2030    21.7002    84.8867 H            1 SAH299   0.0000
    45 H19         16.2633    21.9960    89.2751 H            1 SAH299   0.0000
    46 H20         13.7307    29.0720    90.9722 H            1 SAH299   0.0000
@<TRIPOS>BOND
     1    1    2       1
     2    2    3       1
     3    2    6       1
     4    3    4       1
     5    4    5       1
     6    5    9       1
     7    6    7      ar
     8    6    8      ar
     9    9   10       1
    10   10   11       1
    11   10   12       1
    12   11   16       1
    13   12   13       1
    14   12   14       1
    15   14   15       1
    16   14   16       1
    17   16   17       1
    18   17   18       1
    19   17   26       1
    20   18   19       2
    21   19   20       1
    22   20   21      ar
    23   20   26      ar
    24   21   22       1
    25   21   23      ar
    26   23   24      ar
    27   24   25      ar
    28   25   26      ar
    29    1   27       1
    30    1   28       1
    31    2   29       1
    32    3   30       1
    33    3   31       1
    34    4   32       1
    35    4   33       1
    36    1   46       1
    37    9   34       1
    38    9   35       1
    39   10   36       1
    40   12   37       1
    41   13   38       1
    42   14   39       1
    43   15   40       1
    44   16   41       1
    45   18   42       1
    46   22   43       1
    47   22   44       1
    48   24   45       1
@<TRIPOS>SUBSTRUCTURE
     1 SAH299      1 GROUP             4 A     SAH     0 **** SAH A 299
