@<TRIPOS>MOLECULE
3lb8_FAD_1_ligand
   84    89     1     0     0
SMALL
NO_CHARGES


@<TRIPOS>ATOM
     1 PA           7.2840    -6.3760    -1.9580 P.3          1 FAD449   0.0000
     2 O1A          6.9030    -7.8010    -1.8120 O.co2        1 FAD449   0.0000
     3 O2A          8.0180    -5.6980    -1.0190 O.co2        1 FAD449  -1.0000
     4 O5B          5.9670    -5.6350    -2.0000 O.3          1 FAD449   0.0000
     5 C5B          4.7910    -5.9030    -2.8210 C.3          1 FAD449   0.0000
     6 C4B          3.6540    -5.3060    -1.9480 C.3          1 FAD449   0.0000
     7 O4B          2.3560    -5.5180    -2.6650 O.3          1 FAD449   0.0000
     8 C3B          3.4990    -5.9810    -0.5740 C.3          1 FAD449   0.0000
     9 O3B          3.4650    -5.1530     0.5220 O.3          1 FAD449   0.0000
    10 C2B          2.3080    -6.8380    -0.8240 C.3          1 FAD449   0.0000
    11 O2B          1.6510    -7.3870     0.2590 O.3          1 FAD449   0.0000
    12 C1B          1.4330    -5.9770    -1.6480 C.3          1 FAD449   0.0000
    13 N9A          0.3890    -6.6970    -2.3630 N.pl3        1 FAD449   0.0000
    14 C8A          0.5000    -7.9190    -3.0210 C.2          1 FAD449   0.0000
    15 N7A         -0.6380    -8.3170    -3.5750 N.2          1 FAD449   0.0000
    16 C5A         -1.5370    -7.3290    -3.2790 C.ar         1 FAD449   0.0000
    17 C6A         -2.9710    -7.1700    -3.5980 C.ar         1 FAD449   0.0000
    18 N6A         -3.6500    -8.0400    -4.2810 N.pl3        1 FAD449   0.0000
    19 N1A         -3.5660    -6.0020    -3.1120 N.ar         1 FAD449   0.0000
    20 C2A         -2.8770    -5.0490    -2.3830 C.ar         1 FAD449   0.0000
    21 N3A         -1.5640    -5.1180    -2.0460 N.ar         1 FAD449   0.0000
    22 C4A         -0.9320    -6.2740    -2.5110 C.ar         1 FAD449   0.0000
    23 N1          17.6170    -6.8280    -1.7060 N.2          1 FAD449   0.0000
    24 C2          18.8340    -6.3860    -1.9490 C.2          1 FAD449   0.0000
    25 O2          19.1520    -6.0370    -3.0310 O.2          1 FAD449   0.0000
    26 N3          19.8260    -6.2950    -0.9180 N.pl3        1 FAD449   0.0000
    27 C4          19.5650    -6.6750     0.3900 C.2          1 FAD449   0.0000
    28 O4          20.4370    -6.5740     1.2480 O.2          1 FAD449   0.0000
    29 C4X         18.2250    -7.1760     0.6850 C.2          1 FAD449   0.0000
    30 N5          17.8770    -7.5770     1.9680 N.2          1 FAD449   0.0000
    31 C5X         16.5900    -8.0200     2.2080 C.ar         1 FAD449   0.0000
    32 C6          16.2280    -8.4300     3.5370 C.ar         1 FAD449   0.0000
    33 C7          14.9190    -8.8820     3.8480 C.ar         1 FAD449   0.0000
    34 C7M         14.5830    -9.3090     5.2670 C.3          1 FAD449   0.0000
    35 C8          13.8850    -8.9330     2.7800 C.ar         1 FAD449   0.0000
    36 C8M         12.4580    -9.3910     3.0070 C.3          1 FAD449   0.0000
    37 C9          14.2440    -8.5360     1.4690 C.ar         1 FAD449   0.0000
    38 C9A         15.5850    -8.0830     1.1600 C.ar         1 FAD449   0.0000
    39 N10         16.0180    -7.6480    -0.2110 N.pl3        1 FAD449   0.0000
    40 C10         17.2640    -7.2240    -0.4570 C.2          1 FAD449   0.0000
    41 C1'         14.9330    -7.7460    -1.1880 C.3          1 FAD449   0.0000
    42 C2'         14.3540    -6.3150    -1.5550 C.3          1 FAD449   0.0000
    43 O2'         14.1270    -5.5380    -0.3830 O.3          1 FAD449   0.0000
    44 C3'         13.1390    -6.6760    -2.3290 C.3          1 FAD449   0.0000
    45 O3'         13.4770    -7.4500    -3.4950 O.3          1 FAD449   0.0000
    46 C4'         12.2880    -5.4950    -2.7660 C.3          1 FAD449   0.0000
    47 O4'         11.9320    -4.6130    -1.6760 O.3          1 FAD449   0.0000
    48 C5'         11.0780    -6.1580    -3.3790 C.3          1 FAD449   0.0000
    49 O5'         10.0790    -5.0750    -3.7310 O.3          1 FAD449   0.0000
    50 P            8.7620    -5.3860    -4.2880 P.3          1 FAD449   0.0000
    51 O1P          8.2090    -3.9370    -4.4240 O.co2        1 FAD449   0.0000
    52 O2P          8.8740    -6.0610    -5.5010 O.co2        1 FAD449  -1.0000
    53 O3P          7.7830    -6.1320    -3.4750 O.3          1 FAD449   0.0000
    54 H5B1         4.6630    -6.8843    -2.9649 H            1 FAD449   0.0000
    55 H5B2         4.8515    -5.4414    -3.7060 H            1 FAD449   0.0000
    56 H4B          3.8094    -4.3262    -1.8225 H            1 FAD449   0.0000
    57 H3B          4.2817    -6.5922    -0.4566 H            1 FAD449   0.0000
    58 H5           3.3621    -5.7020     1.3515 H            1 FAD449   0.0000
    59 H2B          2.6064    -7.5963    -1.4036 H            1 FAD449   0.0000
    60 H7           0.9359    -6.7600     0.5679 H            1 FAD449   0.0000
    61 H1B          1.0595    -5.2157    -1.1180 H            1 FAD449   0.0000
    62 H8A          1.3503    -8.4430    -3.0709 H            1 FAD449   0.0000
    63 H6A1        -4.6195    -7.8821    -4.4683 H            1 FAD449   0.0000
    64 H6A2        -3.2036    -8.8682    -4.6199 H            1 FAD449   0.0000
    65 H2A         -3.3876    -4.2444    -2.0799 H            1 FAD449   0.0000
    66 H13         20.7344    -5.9467    -1.1492 H            1 FAD449   0.0000
    67 H14         16.9164    -8.3959     4.2616 H            1 FAD449   0.0000
    68 H7M1        13.6263    -9.5967     5.3108 H            1 FAD449   0.0000
    69 H7M2        15.1728   -10.0710     5.5343 H            1 FAD449   0.0000
    70 H7M3        14.7287    -8.5403     5.8898 H            1 FAD449   0.0000
    71 H8M1        11.9506    -9.3395     2.1469 H            1 FAD449   0.0000
    72 H8M2        12.4594   -10.3349     3.3371 H            1 FAD449   0.0000
    73 H8M3        12.0226    -8.8008     3.6868 H            1 FAD449   0.0000
    74 H21         13.5582    -8.5690     0.7419 H            1 FAD449   0.0000
    75 H1'1        14.1986    -8.3054    -0.8037 H            1 FAD449   0.0000
    76 H1'2        15.2817    -8.1789    -2.0192 H            1 FAD449   0.0000
    77 H2'         14.9992    -5.8375    -2.1514 H            1 FAD449   0.0000
    78 H25         14.9891    -5.4176     0.1093 H            1 FAD449   0.0000
    79 H3'         12.5710    -7.2527    -1.7418 H            1 FAD449   0.0000
    80 H27         12.7228    -8.0690    -3.7143 H            1 FAD449   0.0000
    81 H4'         12.7748    -4.9760    -3.4686 H            1 FAD449   0.0000
    82 H29         12.3248    -4.9601    -0.8244 H            1 FAD449   0.0000
    83 H5'1        10.6715    -6.7947    -2.7238 H            1 FAD449   0.0000
    84 H5'2        11.3451    -6.6548    -4.2048 H            1 FAD449   0.0000
@<TRIPOS>BOND
     1    1    2      ar
     2    1    3      ar
     3    1    4       1
     4    1   53       1
     5    4    5       1
     6    5    6       1
     7    6    7       1
     8    6    8       1
     9    7   12       1
    10    8    9       1
    11    8   10       1
    12   10   11       1
    13   10   12       1
    14   12   13       1
    15   13   14       1
    16   13   22       1
    17   14   15       2
    18   15   16       1
    19   16   17      ar
    20   16   22      ar
    21   17   18       1
    22   17   19      ar
    23   19   20      ar
    24   20   21      ar
    25   21   22      ar
    26   23   24       1
    27   23   40       2
    28   24   25       2
    29   24   26       1
    30   26   27       1
    31   27   28       2
    32   27   29       1
    33   29   30       2
    34   29   40       1
    35   30   31       1
    36   31   32      ar
    37   31   38      ar
    38   32   33      ar
    39   33   34       1
    40   33   35      ar
    41   35   36       1
    42   35   37      ar
    43   37   38      ar
    44   38   39       1
    45   39   40       1
    46   39   41       1
    47   41   42       1
    48   42   43       1
    49   42   44       1
    50   44   45       1
    51   44   46       1
    52   46   47       1
    53   46   48       1
    54   48   49       1
    55   49   50       1
    56   50   51      ar
    57   50   52      ar
    58   50   53       1
    59   48   84       1
    60    5   54       1
    61    5   55       1
    62    6   56       1
    63    8   57       1
    64    9   58       1
    65   10   59       1
    66   11   60       1
    67   12   61       1
    68   14   62       1
    69   18   63       1
    70   18   64       1
    71   20   65       1
    72   26   66       1
    73   32   67       1
    74   34   68       1
    75   34   69       1
    76   34   70       1
    77   36   71       1
    78   36   72       1
    79   36   73       1
    80   37   74       1
    81   41   75       1
    82   41   76       1
    83   42   77       1
    84   43   78       1
    85   44   79       1
    86   45   80       1
    87   46   81       1
    88   47   82       1
    89   48   83       1
@<TRIPOS>SUBSTRUCTURE
     1 FAD449      1 GROUP             4 A     FAD     0 **** FAD A 449
