@<TRIPOS>MOLECULE
3hii_PNT_1_ligand
   51    52     1     0     0
SMALL
NO_CHARGES


@<TRIPOS>ATOM
     1 C1         -28.3070   -13.4570    73.1330 C.ar         1 PNT901   0.0000
     2 C2         -27.3080   -13.6030    72.1840 C.ar         1 PNT901   0.0000
     3 C3         -27.6270   -13.8790    70.8610 C.ar         1 PNT901   0.0000
     4 C4         -28.9540   -14.0140    70.4850 C.ar         1 PNT901   0.0000
     5 C5         -29.9570   -13.8850    71.4380 C.ar         1 PNT901   0.0000
     6 C6         -29.6320   -13.6100    72.7570 C.ar         1 PNT901   0.0000
     7 C7         -28.3350   -12.1160    75.2200 C.3          1 PNT901   0.0000
     8 C8         -29.6970   -12.3080    75.8240 C.3          1 PNT901   0.0000
     9 C9         -29.3220   -14.3200    69.0770 C.cat        1 PNT901   0.0000
    10 C10        -30.7090   -11.4320    75.1000 C.3          1 PNT901   0.0000
    11 C1'        -34.1200    -9.6500    73.9860 C.ar         1 PNT901   0.0000
    12 C2'        -35.1620   -10.5300    73.6920 C.ar         1 PNT901   0.0000
    13 C3'        -36.2790   -10.0830    72.9950 C.ar         1 PNT901   0.0000
    14 C4'        -36.3690    -8.7560    72.5940 C.ar         1 PNT901   0.0000
    15 C5'        -35.3330    -7.8730    72.8910 C.ar         1 PNT901   0.0000
    16 C6'        -34.2100    -8.3160    73.5820 C.ar         1 PNT901   0.0000
    17 C7'        -31.9200    -9.2880    75.0050 C.3          1 PNT901   0.0000
    18 C8'        -30.9000   -10.0920    75.7860 C.3          1 PNT901   0.0000
    19 C9'        -37.5800    -8.2700    71.8560 C.cat        1 PNT901   0.0000
    20 O1         -27.9580   -13.2270    74.4360 O.3          1 PNT901   0.0000
    21 O1'        -33.0300   -10.1240    74.6720 O.3          1 PNT901   0.0000
    22 N1         -28.6640   -13.8820    68.0960 N.pl3        1 PNT901   1.0000
    23 N2         -30.3680   -15.1110    68.8550 N.pl3        1 PNT901   0.0000
    24 N1'        -38.0680    -8.9750    70.9310 N.pl3        1 PNT901   1.0000
    25 N2'        -38.1400    -7.1010    72.1840 N.pl3        1 PNT901   0.0000
    26 H1         -26.3497   -13.5089    72.4540 H            1 PNT901   0.0000
    27 H2         -26.9008   -13.9801    70.1810 H            1 PNT901   0.0000
    28 H3         -30.9151   -13.9908    71.1717 H            1 PNT901   0.0000
    29 H4         -30.3568   -13.5216    73.4403 H            1 PNT901   0.0000
    30 H5         -27.6675   -11.9947    75.9547 H            1 PNT901   0.0000
    31 H6         -28.3473   -11.2996    74.6427 H            1 PNT901   0.0000
    32 H7         -29.6702   -12.0548    76.7910 H            1 PNT901   0.0000
    33 H8         -29.9663   -13.2672    75.7379 H            1 PNT901   0.0000
    34 H9         -31.5876   -11.9088    75.0739 H            1 PNT901   0.0000
    35 H10        -30.3881   -11.2732    74.1663 H            1 PNT901   0.0000
    36 H2'        -35.1053   -11.4849    73.9834 H            1 PNT901   0.0000
    37 H3'        -37.0204   -10.7192    72.7816 H            1 PNT901   0.0000
    38 H5'        -35.3970    -6.9166    72.6062 H            1 PNT901   0.0000
    39 H6'        -33.4672    -7.6795    73.7895 H            1 PNT901   0.0000
    40 H7'1       -31.5001    -8.9413    74.1662 H            1 PNT901   0.0000
    41 H7'2       -32.2362    -8.5198    75.5616 H            1 PNT901   0.0000
    42 H8'1       -30.0301    -9.5993    75.8103 H            1 PNT901   0.0000
    43 H8'2       -31.2280   -10.2356    76.7197 H            1 PNT901   0.0000
    44 H19        -28.9443   -14.1107    67.1637 H            1 PNT901   0.0000
    45 H20        -27.8614   -13.3056    68.2496 H            1 PNT901   0.0000
    46 H21        -30.6371   -15.3328    67.9178 H            1 PNT901   0.0000
    47 H1'1       -38.8757    -8.6581    70.4338 H            1 PNT901   0.0000
    48 H1'2       -37.6472    -9.8509    70.6948 H            1 PNT901   0.0000
    49 H2'1       -38.9478    -6.7778    71.6911 H            1 PNT901   0.0000
    50 H25        -30.8853   -15.4839    69.6253 H            1 PNT901   0.0000
    51 H2'2       -37.7510    -6.5499    72.9223 H            1 PNT901   0.0000
@<TRIPOS>BOND
     1    1    2      ar
     2    1    6      ar
     3    1   20       1
     4    2    3      ar
     5    3    4      ar
     6    4    5      ar
     7    4    9       1
     8    5    6      ar
     9    7    8       1
    10    7   20       1
    11    8   10       1
    12    9   22      ar
    13    9   23      ar
    14   10   18       1
    15   11   12      ar
    16   11   16      ar
    17   11   21       1
    18   12   13      ar
    19   13   14      ar
    20   14   15      ar
    21   14   19       1
    22   15   16      ar
    23   17   18       1
    24   17   21       1
    25   19   24      ar
    26   19   25      ar
    27    2   26       1
    28    3   27       1
    29    5   28       1
    30    6   29       1
    31    7   30       1
    32    7   31       1
    33    8   32       1
    34    8   33       1
    35   10   34       1
    36   10   35       1
    37   12   36       1
    38   13   37       1
    39   15   38       1
    40   16   39       1
    41   17   40       1
    42   17   41       1
    43   18   42       1
    44   18   43       1
    45   22   44       1
    46   22   45       1
    47   23   46       1
    48   24   47       1
    49   24   48       1
    50   25   49       1
    51   23   50       1
    52   25   51       1
@<TRIPOS>SUBSTRUCTURE
     1 PNT901      1 GROUP             4 A     PNT     0 **** PNT A 901
