@<TRIPOS>MOLECULE
2olo_6PC_1_ligand
   13    13     1     0     0
SMALL
NO_CHARGES


@<TRIPOS>ATOM
     1 C1         -36.6630   -21.7160    20.9540 C.ar         1 6PC2001   0.0000
     2 C3         -35.3780   -20.7510    19.1420 C.ar         1 6PC2001   0.0000
     3 C4         -34.1640   -20.8150    19.9130 C.ar         1 6PC2001   0.0000
     4 C2         -38.0300   -22.1910    21.4590 C.2          1 6PC2001   0.0000
     5 C5         -34.2230   -21.3550    21.2430 C.ar         1 6PC2001   0.0000
     6 C6         -35.4800   -21.8020    21.7560 C.ar         1 6PC2001   0.0000
     7 O1         -39.0790   -21.6670    21.0940 O.co2        1 6PC2001   0.0000
     8 O2         -38.0950   -23.1540    22.2630 O.co2        1 6PC2001  -1.0000
     9 N2         -36.6480   -21.1950    19.6310 N.ar         1 6PC2001   0.0000
    10 H1         -35.3317   -20.3766    18.2159 H            1 6PC2001   0.0000
    11 H2         -33.2985   -20.4907    19.5312 H            1 6PC2001   0.0000
    12 H3         -33.3962   -21.4173    21.8020 H            1 6PC2001   0.0000
    13 H4         -35.5336   -22.1773    22.6813 H            1 6PC2001   0.0000
@<TRIPOS>BOND
     1    1    4       1
     2    1    6      ar
     3    1    9      ar
     4    2    3      ar
     5    2    9      ar
     6    3    5      ar
     7    4    7      ar
     8    4    8      ar
     9    5    6      ar
    10    2   10       1
    11    3   11       1
    12    5   12       1
    13    6   13       1
@<TRIPOS>SUBSTRUCTURE
     1 6PC2001     1 GROUP             4 A     6PC     0 **** 6PC A2001
