@<TRIPOS>MOLECULE
2zan_ATP_1_ligand
   43    45     1     0     0
SMALL
NO_CHARGES


@<TRIPOS>ATOM
     1 PG          54.8420    15.6490    10.0570 P.3          1 ATP446   0.0000
     2 O1G         55.1210    16.5790    11.1830 O.co2        1 ATP446   0.0000
     3 O2G         54.4170    14.2150    10.6110 O.co2        1 ATP446  -1.0000
     4 O3G         56.1430    15.5190     9.1280 O.co2        1 ATP446  -1.0000
     5 PB          53.9040    17.6230     8.5480 P.3          1 ATP446   0.0000
     6 O1B         54.0000    18.6290     9.6290 O.co2        1 ATP446   0.0000
     7 O2B         55.1960    17.5910     7.5830 O.co2        1 ATP446  -1.0000
     8 O3B         53.6220    16.1600     9.2060 O.3          1 ATP446   0.0000
     9 PA          52.5320    19.1040     6.7820 P.3          1 ATP446   0.0000
    10 O1A         53.6190    19.0550     5.7690 O.co2        1 ATP446   0.0000
    11 O2A         52.5630    20.4510     7.6590 O.co2        1 ATP446  -1.0000
    12 O3A         52.5890    17.8330     7.7010 O.3          1 ATP446   0.0000
    13 O5'         51.1180    18.8450     6.1410 O.3          1 ATP446   0.0000
    14 C5'         50.7840    19.8060     5.1990 C.3          1 ATP446   0.0000
    15 C4'         49.4060    19.3980     4.7310 C.3          1 ATP446   0.0000
    16 O4'         48.4490    19.3960     5.8300 O.3          1 ATP446   0.0000
    17 C3'         48.9070    20.3500     3.6700 C.3          1 ATP446   0.0000
    18 O3'         48.4930    19.6280     2.5260 O.3          1 ATP446   0.0000
    19 C2'         47.7640    21.1150     4.3090 C.3          1 ATP446   0.0000
    20 O2'         46.5720    20.8850     3.5660 O.3          1 ATP446   0.0000
    21 C1'         47.6380    20.6030     5.7680 C.3          1 ATP446   0.0000
    22 N9          48.1250    21.6530     6.7330 N.pl3        1 ATP446   0.0000
    23 C8          48.8510    21.4350     7.8800 C.2          1 ATP446   0.0000
    24 N7          49.1160    22.5540     8.4820 N.2          1 ATP446   0.0000
    25 C5          48.5780    23.5850     7.7790 C.ar         1 ATP446   0.0000
    26 C6          48.5400    25.0020     7.9280 C.ar         1 ATP446   0.0000
    27 N6          49.1510    25.6090     9.0000 N.pl3        1 ATP446   0.0000
    28 N1          47.8980    25.7400     7.0140 N.ar         1 ATP446   0.0000
    29 C2          47.3020    25.1790     5.9720 C.ar         1 ATP446   0.0000
    30 N3          47.3150    23.8560     5.7870 N.ar         1 ATP446   0.0000
    31 C4          47.9300    23.0280     6.6500 C.ar         1 ATP446   0.0000
    32 H5'1        51.4338    19.7993     4.4389 H            1 ATP446   0.0000
    33 H5'2        50.7637    20.7164     5.6121 H            1 ATP446   0.0000
    34 H4'         49.4552    18.4777     4.3429 H            1 ATP446   0.0000
    35 H3'         49.6373    20.9855     3.4194 H            1 ATP446   0.0000
    36 H5          48.1646    20.2663     1.8298 H            1 ATP446   0.0000
    37 H2'         47.9744    22.0926     4.3128 H            1 ATP446   0.0000
    38 H7          46.3624    19.9072     3.5663 H            1 ATP446   0.0000
    39 H1'         46.6837    20.3791     5.9660 H            1 ATP446   0.0000
    40 H9          49.1369    20.5342     8.2070 H            1 ATP446   0.0000
    41 H10         49.1191    26.6038     9.0962 H            1 ATP446   0.0000
    42 H11         49.6272    25.0556     9.6833 H            1 ATP446   0.0000
    43 H12         46.8311    25.7599     5.3081 H            1 ATP446   0.0000
@<TRIPOS>BOND
     1    1    2      ar
     2    1    3      ar
     3    1    4      ar
     4    1    8       1
     5    5    6      ar
     6    5    7      ar
     7    5    8       1
     8    5   12       1
     9    9   10      ar
    10    9   11      ar
    11    9   12       1
    12    9   13       1
    13   13   14       1
    14   14   15       1
    15   15   16       1
    16   15   17       1
    17   16   21       1
    18   17   18       1
    19   17   19       1
    20   19   20       1
    21   19   21       1
    22   21   22       1
    23   22   23       1
    24   22   31       1
    25   23   24       2
    26   24   25       1
    27   25   26      ar
    28   25   31      ar
    29   26   27       1
    30   26   28      ar
    31   28   29      ar
    32   29   30      ar
    33   30   31      ar
    34   29   43       1
    35   27   42       1
    36   27   41       1
    37   23   40       1
    38   14   32       1
    39   14   33       1
    40   15   34       1
    41   17   35       1
    42   18   36       1
    43   19   37       1
    44   20   38       1
    45   21   39       1
@<TRIPOS>SUBSTRUCTURE
     1 ATP446      1 GROUP             4 A     ATP     0 **** ATP A 446
