@<TRIPOS>MOLECULE
3n4m_CMP_1_ligand
   34    37     1     0     0
SMALL
NO_CHARGES


@<TRIPOS>ATOM
     1 P           86.9960   -62.8700   148.8520 P.3          1 CMP210   0.0000
     2 O1P         85.7440   -62.2200   149.4000 O.3          1 CMP210   0.0000
     3 O2P         86.7030   -64.2180   148.2450 O.2          1 CMP210   0.0000
     4 O5'         87.7150   -61.9100   147.7790 O.3          1 CMP210   0.0000
     5 C5'         88.3890   -60.7330   148.2130 C.3          1 CMP210   0.0000
     6 C4'         89.4280   -61.1920   149.2190 C.3          1 CMP210   0.0000
     7 O4'         90.2210   -60.1600   149.8090 O.3          1 CMP210   0.0000
     8 C3'         88.7580   -61.8240   150.4140 C.3          1 CMP210   0.0000
     9 O3'         88.1120   -63.0200   150.0060 O.3          1 CMP210   0.0000
    10 C2'         89.9340   -61.9420   151.3570 C.3          1 CMP210   0.0000
    11 O2'         90.7740   -63.0390   150.9950 O.3          1 CMP210   0.0000
    12 C1'         90.6650   -60.6310   151.0870 C.3          1 CMP210   0.0000
    13 N9          90.2520   -59.6700   152.1390 N.pl3        1 CMP210   0.0000
    14 C8          89.0610   -59.0370   152.2190 C.2          1 CMP210   0.0000
    15 N7          88.9970   -58.2400   153.3190 N.2          1 CMP210   0.0000
    16 C5          90.1760   -58.3610   153.9630 C.ar         1 CMP210   0.0000
    17 C6          90.7800   -57.7990   155.1920 C.ar         1 CMP210   0.0000
    18 N6          90.0980   -56.9230   155.9650 N.pl3        1 CMP210   0.0000
    19 N1          92.0350   -58.1960   155.5120 N.ar         1 CMP210   0.0000
    20 C2          92.7250   -59.0700   154.7470 C.ar         1 CMP210   0.0000
    21 N3          92.2420   -59.6220   153.6180 N.ar         1 CMP210   0.0000
    22 C4          90.9960   -59.3090   153.1850 C.ar         1 CMP210   0.0000
    23 H1P         85.1057   -62.9280   149.7020 H            1 CMP210   0.0000
    24 H5'1        87.7437   -60.1020   148.6435 H            1 CMP210   0.0000
    25 H5'2        88.8314   -60.2806   147.4387 H            1 CMP210   0.0000
    26 H4'         90.0304   -61.8630   148.7867 H            1 CMP210   0.0000
    27 H3'         88.0839   -61.1912   150.7950 H            1 CMP210   0.0000
    28 H2'         89.6358   -62.0066   152.3093 H            1 CMP210   0.0000
    29 H7          90.8198   -63.6884   151.7540 H            1 CMP210   0.0000
    30 H1'         91.6559   -60.7656   151.0943 H            1 CMP210   0.0000
    31 H9          88.3212   -59.1413   151.5543 H            1 CMP210   0.0000
    32 H10         90.5201   -56.5523   156.7923 H            1 CMP210   0.0000
    33 H11         89.1718   -56.6461   155.7091 H            1 CMP210   0.0000
    34 H12         93.6486   -59.3217   155.0363 H            1 CMP210   0.0000
@<TRIPOS>BOND
     1    1    2       1
     2    1    3       2
     3    1    4       1
     4    1    9       1
     5    4    5       1
     6    5    6       1
     7    6    7       1
     8    6    8       1
     9    7   12       1
    10    8    9       1
    11    8   10       1
    12   10   11       1
    13   10   12       1
    14   12   13       1
    15   13   14       1
    16   13   22       1
    17   14   15       2
    18   15   16       1
    19   16   17      ar
    20   16   22      ar
    21   17   18       1
    22   17   19      ar
    23   19   20      ar
    24   20   21      ar
    25   21   22      ar
    26    2   23       1
    27    5   24       1
    28    5   25       1
    29    6   26       1
    30    8   27       1
    31   10   28       1
    32   11   29       1
    33   12   30       1
    34   14   31       1
    35   18   32       1
    36   18   33       1
    37   20   34       1
@<TRIPOS>SUBSTRUCTURE
     1 CMP210      1 GROUP             4 A     CMP     0 **** CMP A 210
