@<TRIPOS>MOLECULE
4wxl_BB2_3_ligand
   61    61     1     0     0
SMALL
NO_CHARGES


@<TRIPOS>ATOM
     1 C5         -19.8270    30.6760    56.9560 C.3          1 BB2202   0.0000
     2 C3         -19.0340    30.9560    55.6790 C.2          1 BB2202   0.0000
     3 O4         -17.8870    31.3780    55.7500 O.2          1 BB2202   0.0000
     4 N1         -19.6560    30.7630    54.5050 N.am         1 BB2202   0.0000
     5 O2         -19.0340    31.1080    53.3140 O.3          1 BB2202  -1.0000
     6 C6         -20.7170    31.8720    57.3500 C.3          1 BB2202   0.0000
     7 C12        -21.0370    31.9640    58.8220 C.2          1 BB2202   0.0000
     8 O13        -21.3450    30.9370    59.4270 O.2          1 BB2202   0.0000
     9 C7         -22.0530    31.8590    56.6350 C.3          1 BB2202   0.0000
    10 C8         -22.1890    33.2290    56.0770 C.3          1 BB2202   0.0000
    11 C9         -23.5340    33.3000    55.4440 C.3          1 BB2202   0.0000
    12 C10        -24.0990    34.6440    55.8240 C.3          1 BB2202   0.0000
    13 C11        -24.6410    34.5580    57.2280 C.3          1 BB2202   0.0000
    14 N14        -20.9330    33.2230    59.3280 N.am         1 BB2202   0.0000
    15 C15        -21.0280    33.6130    60.7300 C.3          1 BB2202   0.0000
    16 C16        -19.6560    33.3220    61.4050 C.3          1 BB2202   0.0000
    17 C18        -19.0010    34.4070    62.2750 C.3          1 BB2202   0.0000
    18 C17        -19.7450    32.0790    62.2830 C.3          1 BB2202   0.0000
    19 C19        -21.4750    35.0600    60.7800 C.2          1 BB2202   0.0000
    20 O20        -20.6340    35.9180    60.9930 O.2          1 BB2202   0.0000
    21 N21        -22.7800    35.3900    60.6080 N.am         1 BB2202   0.0000
    22 C22        -23.2260    36.6340    59.9510 C.3          1 BB2202   0.0000
    23 C23        -23.9350    34.6470    61.1000 C.3          1 BB2202   0.0000
    24 C24        -25.1820    35.3620    60.5850 C.3          1 BB2202   0.0000
    25 C25        -24.7490    36.6140    59.8610 C.3          1 BB2202   0.0000
    26 C26        -22.7400    37.7690    60.8600 C.3          1 BB2202   0.0000
    27 O27        -23.7790    38.6270    61.3200 O.3          1 BB2202   0.0000
    28 H1         -19.1863    30.4899    57.7009 H            1 BB2202   0.0000
    29 H2         -20.4075    29.8753    56.8078 H            1 BB2202   0.0000
    30 H3         -20.5744    30.3677    54.4890 H            1 BB2202   0.0000
    31 H4         -20.2377    32.7096    57.0880 H            1 BB2202   0.0000
    32 H5         -22.7951    31.6630    57.2760 H            1 BB2202   0.0000
    33 H6         -22.0558    31.1774    55.9033 H            1 BB2202   0.0000
    34 H7         -21.4774    33.3955    55.3944 H            1 BB2202   0.0000
    35 H8         -22.1155    33.9078    56.8076 H            1 BB2202   0.0000
    36 H9         -24.1198    32.5664    55.7886 H            1 BB2202   0.0000
    37 H10        -23.4550    33.2244    54.4500 H            1 BB2202   0.0000
    38 H11        -24.8348    34.8907    55.1933 H            1 BB2202   0.0000
    39 H12        -23.3785    35.3362    55.7828 H            1 BB2202   0.0000
    40 H13        -25.0198    35.4444    57.4939 H            1 BB2202   0.0000
    41 H14        -25.3595    33.8635    57.2660 H            1 BB2202   0.0000
    42 H15        -23.9032    34.3090    57.8555 H            1 BB2202   0.0000
    43 H16        -20.7747    33.9583    58.6690 H            1 BB2202   0.0000
    44 H17        -21.7259    33.0487    61.1709 H            1 BB2202   0.0000
    45 H18        -19.0109    33.1117    60.6704 H            1 BB2202   0.0000
    46 H19        -18.1314    34.0671    62.6332 H            1 BB2202   0.0000
    47 H20        -18.8372    35.2239    61.7219 H            1 BB2202   0.0000
    48 H21        -19.6083    34.6359    63.0358 H            1 BB2202   0.0000
    49 H22        -18.8564    31.9069    62.7082 H            1 BB2202   0.0000
    50 H23        -20.4329    32.2221    62.9946 H            1 BB2202   0.0000
    51 H24        -20.0041    31.2926    61.7222 H            1 BB2202   0.0000
    52 H25        -22.8211    36.7152    59.0403 H            1 BB2202   0.0000
    53 H26        -23.9347    34.6354    62.0999 H            1 BB2202   0.0000
    54 H27        -23.9110    33.7084    60.7557 H            1 BB2202   0.0000
    55 H28        -25.7741    35.6041    61.3536 H            1 BB2202   0.0000
    56 H29        -25.6792    34.7635    59.9568 H            1 BB2202   0.0000
    57 H30        -25.0418    36.5836    58.9053 H            1 BB2202   0.0000
    58 H31        -25.1354    37.4238    60.3024 H            1 BB2202   0.0000
    59 H32        -22.0799    38.3201    60.3495 H            1 BB2202   0.0000
    60 H33        -22.2909    37.3638    61.6564 H            1 BB2202   0.0000
    61 H34        -23.9004    39.3799    60.6732 H            1 BB2202   0.0000
@<TRIPOS>BOND
     1    1    2       1
     2    1    6       1
     3    2    3       2
     4    2    4      am
     5    4    5       1
     6    6    7       1
     7    6    9       1
     8    7    8       2
     9    7   14      am
    10    9   10       1
    11   10   11       1
    12   11   12       1
    13   12   13       1
    14   14   15       1
    15   15   16       1
    16   15   19       1
    17   16   17       1
    18   16   18       1
    19   19   20       2
    20   19   21      am
    21   21   22       1
    22   21   23       1
    23   22   25       1
    24   22   26       1
    25   23   24       1
    26   24   25       1
    27   26   27       1
    28    1   28       1
    29    1   29       1
    30    4   30       1
    31   27   61       1
    32    6   31       1
    33    9   32       1
    34    9   33       1
    35   10   34       1
    36   10   35       1
    37   11   36       1
    38   11   37       1
    39   12   38       1
    40   12   39       1
    41   13   40       1
    42   13   41       1
    43   13   42       1
    44   14   43       1
    45   15   44       1
    46   16   45       1
    47   17   46       1
    48   17   47       1
    49   17   48       1
    50   18   49       1
    51   18   50       1
    52   18   51       1
    53   22   52       1
    54   23   53       1
    55   23   54       1
    56   24   55       1
    57   24   56       1
    58   25   57       1
    59   25   58       1
    60   26   59       1
    61   26   60       1
@<TRIPOS>SUBSTRUCTURE
     1 BB2202      1 GROUP             4 C     BB2     0 **** BB2 C 202
