@<TRIPOS>MOLECULE
1xag_NAD_1_ligand
   70    74     1     0     0
SMALL
NO_CHARGES


@<TRIPOS>ATOM
     1 PA          21.6710    31.3420   -19.4070 P.3          1 NAD400   0.0000
     2 O1A         22.7490    30.6280   -18.7340 O.co2        1 NAD400   0.0000
     3 O2A         20.3750    30.7710   -19.0240 O.co2        1 NAD400  -1.0000
     4 O5B         21.8670    31.2560   -20.9900 O.3          1 NAD400   0.0000
     5 C5B         20.7290    31.6290   -21.8550 C.3          1 NAD400   0.0000
     6 C4B         20.4210    30.4660   -22.7880 C.3          1 NAD400   0.0000
     7 O4B         21.3700    30.3490   -23.8790 O.3          1 NAD400   0.0000
     8 C3B         20.4050    29.0600   -22.1820 C.3          1 NAD400   0.0000
     9 O3B         19.2110    28.3120   -22.5550 O.3          1 NAD400   0.0000
    10 C2B         21.6610    28.3390   -22.7320 C.3          1 NAD400   0.0000
    11 O2B         21.4900    26.9280   -22.8120 O.3          1 NAD400   0.0000
    12 C1B         21.8110    28.9730   -24.0630 C.3          1 NAD400   0.0000
    13 N9A         23.1260    29.2230   -24.6520 N.pl3        1 NAD400   0.0000
    14 C8A         24.2990    29.4950   -23.9460 C.2          1 NAD400   0.0000
    15 N7A         25.2670    29.8380   -24.7830 N.2          1 NAD400   0.0000
    16 C5A         24.7510    29.6310   -26.0570 C.ar         1 NAD400   0.0000
    17 C6A         25.3210    29.7400   -27.3510 C.ar         1 NAD400   0.0000
    18 N6A         26.5630    30.1330   -27.6050 N.pl3        1 NAD400   0.0000
    19 N1A         24.5020    29.4130   -28.4370 N.ar         1 NAD400   0.0000
    20 C2A         23.1870    29.0900   -28.1980 C.ar         1 NAD400   0.0000
    21 N3A         22.5400    28.9800   -27.0370 N.ar         1 NAD400   0.0000
    22 C4A         23.4320    29.2570   -25.9780 C.ar         1 NAD400   0.0000
    23 O3          21.6930    32.8670   -18.9750 O.3          1 NAD400   0.0000
    24 PN          22.4050    34.2130   -19.4680 P.3          1 NAD400   0.0000
    25 O1N         23.7430    33.9330   -19.9690 O.co2        1 NAD400   0.0000
    26 O2N         21.6030    34.8450   -20.5640 O.co2        1 NAD400  -1.0000
    27 O5D         22.4610    35.1870   -18.1710 O.3          1 NAD400   0.0000
    28 C5D         21.3950    35.2530   -17.2350 C.3          1 NAD400   0.0000
    29 C4D         21.8290    34.6680   -15.8760 C.3          1 NAD400   0.0000
    30 O4D         22.9940    35.4010   -15.3680 O.3          1 NAD400   0.0000
    31 C3D         20.7580    34.7930   -14.7700 C.3          1 NAD400   0.0000
    32 O3D         20.8450    33.6220   -13.9830 O.3          1 NAD400   0.0000
    33 C2D         21.1510    36.0570   -14.0380 C.3          1 NAD400   0.0000
    34 O2D         20.5940    36.1600   -12.7130 O.3          1 NAD400   0.0000
    35 C1D         22.6600    35.9760   -14.0550 C.3          1 NAD400   0.0000
    36 N1N         23.3780    37.2500   -14.0340 N.ar         1 NAD400   1.0000
    37 C2N         24.3530    37.2750   -13.0520 C.ar         1 NAD400   0.0000
    38 C3N         25.3290    38.2670   -13.1000 C.ar         1 NAD400   0.0000
    39 C7N         26.6030    38.2180   -12.2210 C.2          1 NAD400   0.0000
    40 O7N         27.4930    39.0520   -12.3780 O.2          1 NAD400   0.0000
    41 N7N         26.6990    37.2280   -11.2950 N.am         1 NAD400   0.0000
    42 C4N         25.2390    39.4080   -13.9930 C.ar         1 NAD400   0.0000
    43 C5N         24.1480    39.3120   -14.9250 C.ar         1 NAD400   0.0000
    44 C6N         23.1410    38.3750   -14.9070 C.ar         1 NAD400   0.0000
    45 H5B1        20.9666    32.4378   -22.3930 H            1 NAD400   0.0000
    46 H5B2        19.9283    31.8279   -21.2900 H            1 NAD400   0.0000
    47 H4B         19.5199    30.6317   -23.1888 H            1 NAD400   0.0000
    48 H3B         20.4637    29.1233   -21.1857 H            1 NAD400   0.0000
    49 H5          19.2432    27.4034   -22.1385 H            1 NAD400   0.0000
    50 H2B         22.4537    28.5538   -22.1615 H            1 NAD400   0.0000
    51 H7          21.7826    26.5075   -21.9531 H            1 NAD400   0.0000
    52 H1B         21.2223    28.5128   -24.7275 H            1 NAD400   0.0000
    53 H8A         24.3949    29.4391   -22.9522 H            1 NAD400   0.0000
    54 H6A1        26.8884    30.1828   -28.5492 H            1 NAD400   0.0000
    55 H6A2        27.1733    30.3793   -26.8521 H            1 NAD400   0.0000
    56 H2A         22.6357    28.9117   -29.0131 H            1 NAD400   0.0000
    57 H5D1        20.6177    34.7300   -17.5848 H            1 NAD400   0.0000
    58 H5D2        21.1254    36.2079   -17.1107 H            1 NAD400   0.0000
    59 H4D         22.0709    33.7048   -15.9936 H            1 NAD400   0.0000
    60 H3D         19.8457    34.8842   -15.1693 H            1 NAD400   0.0000
    61 H17         19.9710    33.1368   -14.0097 H            1 NAD400   0.0000
    62 H2D         20.8611    36.8486   -14.5758 H            1 NAD400   0.0000
    63 H19         21.2215    35.7447   -12.0544 H            1 NAD400   0.0000
    64 H1D         22.9854    35.3803   -13.3206 H            1 NAD400   0.0000
    65 H2N         24.3565    36.5927   -12.3209 H            1 NAD400   0.0000
    66 H7N1        27.5081    37.1668   -10.7105 H            1 NAD400   0.0000
    67 H7N2        25.9605    36.5607   -11.1981 H            1 NAD400   0.0000
    68 H4N         25.8714    40.1821   -13.9631 H            1 NAD400   0.0000
    69 H5N         24.1185    39.9924   -15.6572 H            1 NAD400   0.0000
    70 H6N         22.3099    38.4660   -15.4557 H            1 NAD400   0.0000
@<TRIPOS>BOND
     1    1    2      ar
     2    1    3      ar
     3    1    4       1
     4    1   23       1
     5    4    5       1
     6    5    6       1
     7    6    7       1
     8    6    8       1
     9    7   12       1
    10    8    9       1
    11    8   10       1
    12   10   11       1
    13   10   12       1
    14   12   13       1
    15   13   14       1
    16   13   22       1
    17   14   15       2
    18   15   16       1
    19   16   17      ar
    20   16   22      ar
    21   17   18       1
    22   17   19      ar
    23   19   20      ar
    24   20   21      ar
    25   21   22      ar
    26   23   24       1
    27   24   25      ar
    28   24   26      ar
    29   24   27       1
    30   27   28       1
    31   28   29       1
    32   29   30       1
    33   29   31       1
    34   30   35       1
    35   31   32       1
    36   31   33       1
    37   33   34       1
    38   33   35       1
    39   35   36       1
    40   36   37      ar
    41   36   44      ar
    42   37   38      ar
    43   38   39       1
    44   38   42      ar
    45   39   40       2
    46   39   41      am
    47   42   43      ar
    48   43   44      ar
    49   44   70       1
    50    5   45       1
    51    5   46       1
    52    6   47       1
    53    8   48       1
    54    9   49       1
    55   10   50       1
    56   11   51       1
    57   12   52       1
    58   14   53       1
    59   18   54       1
    60   18   55       1
    61   20   56       1
    62   43   69       1
    63   28   57       1
    64   28   58       1
    65   29   59       1
    66   31   60       1
    67   32   61       1
    68   33   62       1
    69   34   63       1
    70   35   64       1
    71   37   65       1
    72   41   66       1
    73   41   67       1
    74   42   68       1
@<TRIPOS>SUBSTRUCTURE
     1 NAD400      1 GROUP             4 A     NAD     0 **** NAD A 400
