@<TRIPOS>MOLECULE
2hmv_ADP_2_ligand
   39    41     1     0     0
SMALL
NO_CHARGES


@<TRIPOS>ATOM
     1 PB         114.1470    46.4520    32.9680 P.3          1 ADP602   0.0000
     2 O1B        114.4290    47.1540    31.6960 O.co2        1 ADP602   0.0000
     3 O2B        113.1890    45.1940    32.6720 O.co2        1 ADP602  -1.0000
     4 O3B        113.4000    47.4540    33.9760 O.co2        1 ADP602  -1.0000
     5 PA         116.1090    44.6180    32.9520 P.3          1 ADP602   0.0000
     6 O1A        115.5730    44.4510    31.5750 O.co2        1 ADP602   0.0000
     7 O2A        117.7200    44.7220    32.8610 O.co2        1 ADP602  -1.0000
     8 O3A        115.5490    45.9750    33.6470 O.3          1 ADP602   0.0000
     9 O5'        115.6350    43.3440    33.8580 O.3          1 ADP602   0.0000
    10 C5'        116.7550    42.4930    34.1340 C.3          1 ADP602   0.0000
    11 C4'        116.8400    42.1900    35.6320 C.3          1 ADP602   0.0000
    12 O4'        117.7780    41.0870    35.8520 O.3          1 ADP602   0.0000
    13 C3'        117.3650    43.4150    36.4400 C.3          1 ADP602   0.0000
    14 O3'        116.4300    43.7970    37.4520 O.3          1 ADP602   0.0000
    15 C2'        118.7110    42.9450    37.0160 C.3          1 ADP602   0.0000
    16 O2'        118.9700    43.4670    38.3250 O.3          1 ADP602   0.0000
    17 C1'        118.6000    41.4190    37.0050 C.3          1 ADP602   0.0000
    18 N9         119.9290    40.8080    36.8840 N.pl3        1 ADP602   0.0000
    19 C8         120.9490    41.1970    36.0520 C.2          1 ADP602   0.0000
    20 N7         121.9840    40.4250    36.2140 N.2          1 ADP602   0.0000
    21 C5         121.7000    39.4880    37.1510 C.ar         1 ADP602   0.0000
    22 C6         122.4090    38.4080    37.7380 C.ar         1 ADP602   0.0000
    23 N6         123.7010    38.1330    37.3410 N.pl3        1 ADP602   0.0000
    24 N1         121.7890    37.6480    38.6890 N.ar         1 ADP602   0.0000
    25 C2         120.5340    37.9090    39.0810 C.ar         1 ADP602   0.0000
    26 N3         119.8370    38.9240    38.5500 N.ar         1 ADP602   0.0000
    27 C4         120.3730    39.7260    37.5990 C.ar         1 ADP602   0.0000
    28 H5'1       117.5954    42.9497    33.8422 H            1 ADP602   0.0000
    29 H5'2       116.6493    41.6357    33.6301 H            1 ADP602   0.0000
    30 H4'        115.9357    41.9305    35.9709 H            1 ADP602   0.0000
    31 H3'        117.5177    44.1839    35.8191 H            1 ADP602   0.0000
    32 H5         116.2895    43.0329    38.0816 H            1 ADP602   0.0000
    33 H2'        119.4471    43.2248    36.3997 H            1 ADP602   0.0000
    34 H7         118.6048    42.8393    39.0125 H            1 ADP602   0.0000
    35 H1'        118.1549    41.1036    37.8431 H            1 ADP602   0.0000
    36 H9         120.9033    41.9644    35.4124 H            1 ADP602   0.0000
    37 H10        124.2000    37.3718    37.7551 H            1 ADP602   0.0000
    38 H11        124.1387    38.6949    36.6391 H            1 ADP602   0.0000
    39 H12        120.1097    37.3362    39.7824 H            1 ADP602   0.0000
@<TRIPOS>BOND
     1    1    2      ar
     2    1    3      ar
     3    1    4      ar
     4    1    8       1
     5    5    6      ar
     6    5    7      ar
     7    5    8       1
     8    5    9       1
     9    9   10       1
    10   10   11       1
    11   11   12       1
    12   11   13       1
    13   12   17       1
    14   13   14       1
    15   13   15       1
    16   15   16       1
    17   15   17       1
    18   17   18       1
    19   18   19       1
    20   18   27       1
    21   19   20       2
    22   20   21       1
    23   21   22      ar
    24   21   27      ar
    25   22   23       1
    26   22   24      ar
    27   24   25      ar
    28   25   26      ar
    29   26   27      ar
    30   25   39       1
    31   23   38       1
    32   23   37       1
    33   10   28       1
    34   10   29       1
    35   11   30       1
    36   13   31       1
    37   14   32       1
    38   15   33       1
    39   16   34       1
    40   17   35       1
    41   19   36       1
@<TRIPOS>SUBSTRUCTURE
     1 ADP602      1 GROUP             4 B     ADP     0 **** ADP B 602
