@<TRIPOS>MOLECULE
1xe7_GUN_2_ligand
   16    17     1     0     0
SMALL
NO_CHARGES


@<TRIPOS>ATOM
     1 N9         167.3190   129.4300    17.0880 N.2          1 GUN210   0.0000
     2 C8         167.1710   128.0860    16.9450 C.2          1 GUN210   0.0000
     3 N7         168.1350   127.4900    16.2870 N.pl3        1 GUN210   0.0000
     4 C5         168.9970   128.5200    15.9650 C.2          1 GUN210   0.0000
     5 C6         170.2480   128.5110    15.2410 C.2          1 GUN210   0.0000
     6 O6         170.8390   127.5530    14.7360 O.2          1 GUN210   0.0000
     7 N1         170.7980   129.8100    15.1460 N.2          1 GUN210   0.0000
     8 C2         170.2170   130.9710    15.6790 C.2          1 GUN210   0.0000
     9 N2         170.8540   132.1230    15.5090 N.pl3        1 GUN210   0.0000
    10 N3         169.0460   130.9640    16.3530 N.pl3        1 GUN210   0.0000
    11 C4         168.4970   129.7190    16.4570 C.2          1 GUN210   0.0000
    12 H1         166.3854   127.5895    17.3143 H            1 GUN210   0.0000
    13 H2         170.4659   132.9680    15.8769 H            1 GUN210   0.0000
    14 H3         171.7220   132.1459    15.0130 H            1 GUN210   0.0000
    15 H4         168.2252   126.5182    16.0693 H            1 GUN210   0.0000
    16 H5         168.6251   131.7862    16.7361 H            1 GUN210   0.0000
@<TRIPOS>BOND
     1    1    2       2
     2    1   11       1
     3    2    3       1
     4    3    4       1
     5    4    5       1
     6    4   11       2
     7    5    6       2
     8    5    7       1
     9    7    8       2
    10    8    9       1
    11    8   10       1
    12   10   11       1
    13    9   14       1
    14    2   12       1
    15    3   15       1
    16    9   13       1
    17   10   16       1
@<TRIPOS>SUBSTRUCTURE
     1 GUN210      1 GROUP             4 B     GUN     0 **** GUN B 210
