@<TRIPOS>MOLECULE
2hyd_ADP_1_ligand
   39    41     1     0     0
SMALL
NO_CHARGES


@<TRIPOS>ATOM
     1 PB          96.4760    55.5690   172.0210 P.3          1 ADP700   0.0000
     2 O1B         96.6730    56.7870   171.2060 O.co2        1 ADP700   0.0000
     3 O2B         94.9930    55.4940   172.5340 O.co2        1 ADP700  -1.0000
     4 O3B         97.4040    55.5990   173.3140 O.co2        1 ADP700  -1.0000
     5 PA          98.2130    54.3120   170.6770 P.3          1 ADP700   0.0000
     6 O1A         98.1940    55.2000   169.5000 O.co2        1 ADP700   0.0000
     7 O2A         99.2140    54.9800   171.7460 O.co2        1 ADP700  -1.0000
     8 O3A         96.7160    54.2360   171.1440 O.3          1 ADP700   0.0000
     9 O5'         98.6380    52.8470   170.0930 O.3          1 ADP700   0.0000
    10 C5'        100.0570    52.9310   170.0740 C.3          1 ADP700   0.0000
    11 C4'        100.6860    51.6300   169.6840 C.3          1 ADP700   0.0000
    12 O4'        100.4000    51.3770   168.3070 O.3          1 ADP700   0.0000
    13 C3'        102.1890    51.7670   169.8630 C.3          1 ADP700   0.0000
    14 O3'        102.6310    50.8490   170.8430 O.3          1 ADP700   0.0000
    15 C2'        102.8240    51.5560   168.5090 C.3          1 ADP700   0.0000
    16 O2'        103.7650    50.4550   168.5100 O.3          1 ADP700   0.0000
    17 C1'        101.6480    51.3280   167.5530 C.3          1 ADP700   0.0000
    18 N9         101.6700    52.3590   166.5350 N.pl3        1 ADP700   0.0000
    19 C8         101.0800    53.5890   166.5740 C.2          1 ADP700   0.0000
    20 N7         101.3130    54.2420   165.4800 N.2          1 ADP700   0.0000
    21 C5         102.0610    53.4720   164.6790 C.ar         1 ADP700   0.0000
    22 C6         102.6290    53.6080   163.3880 C.ar         1 ADP700   0.0000
    23 N6         102.4480    54.7600   162.6530 N.pl3        1 ADP700   0.0000
    24 N1         103.3520    52.5830   162.8900 N.ar         1 ADP700   0.0000
    25 C2         103.5380    51.4440   163.5900 C.ar         1 ADP700   0.0000
    26 N3         103.0240    51.2760   164.7960 N.ar         1 ADP700   0.0000
    27 C4         102.2900    52.2490   165.3610 C.ar         1 ADP700   0.0000
    28 H5'1       100.3784    53.1853   170.9862 H            1 ADP700   0.0000
    29 H5'2       100.3309    53.6329   169.4164 H            1 ADP700   0.0000
    30 H4'        100.3337    50.8882   170.2546 H            1 ADP700   0.0000
    31 H3'        102.3937    52.6950   170.1744 H            1 ADP700   0.0000
    32 H5         103.2979    50.2238   170.4375 H            1 ADP700   0.0000
    33 H2'        103.3028    52.3921   168.2411 H            1 ADP700   0.0000
    34 H7         104.6717    50.7912   168.2554 H            1 ADP700   0.0000
    35 H1'        101.7402    50.4312   167.1202 H            1 ADP700   0.0000
    36 H9         100.5420    53.9379   167.3413 H            1 ADP700   0.0000
    37 H10        102.8549    54.8417   161.7432 H            1 ADP700   0.0000
    38 H11        101.9098    55.5140   163.0296 H            1 ADP700   0.0000
    39 H12        104.0795    50.7072   163.1851 H            1 ADP700   0.0000
@<TRIPOS>BOND
     1    1    2      ar
     2    1    3      ar
     3    1    4      ar
     4   26   27      ar
     5    1    8       1
     6    5    6      ar
     7    5    7      ar
     8    5    8       1
     9    5    9       1
    10    9   10       1
    11   10   11       1
    12   11   12       1
    13   11   13       1
    14   12   17       1
    15   13   14       1
    16   13   15       1
    17   15   16       1
    18   15   17       1
    19   17   18       1
    20   18   19       1
    21   18   27       1
    22   19   20       2
    23   20   21       1
    24   21   22      ar
    25   21   27      ar
    26   22   23       1
    27   22   24      ar
    28   24   25      ar
    29   25   26      ar
    30   25   39       1
    31   23   38       1
    32   23   37       1
    33   10   28       1
    34   10   29       1
    35   11   30       1
    36   13   31       1
    37   14   32       1
    38   15   33       1
    39   16   34       1
    40   17   35       1
    41   19   36       1
@<TRIPOS>SUBSTRUCTURE
     1 ADP700      1 GROUP             4 A     ADP     0 **** ADP A 700
