@<TRIPOS>MOLECULE
2o12_FMN_1_ligand
   50    52     1     0     0
SMALL
NO_CHARGES


@<TRIPOS>ATOM
     1 N1          75.5310    17.5450    23.1370 N.2          1 FMN593   0.0000
     2 C2          76.3800    18.5570    23.5440 C.2          1 FMN593   0.0000
     3 O2          77.5410    18.2890    23.8120 O.2          1 FMN593   0.0000
     4 N3          75.9120    19.8520    23.6610 N.pl3        1 FMN593   0.0000
     5 C4          74.6140    20.1580    23.3850 C.2          1 FMN593   0.0000
     6 O4          74.2020    21.3150    23.4730 O.2          1 FMN593   0.0000
     7 C4A         73.7410    19.1380    22.9510 C.2          1 FMN593   0.0000
     8 N5          72.4400    19.4280    22.6740 N.2          1 FMN593   0.0000
     9 C5A         71.5780    18.3980    22.3050 C.ar         1 FMN593   0.0000
    10 C6          70.2490    18.7170    22.0620 C.ar         1 FMN593   0.0000
    11 C7          69.3400    17.7420    21.6760 C.ar         1 FMN593   0.0000
    12 C7M         67.8860    18.0800    21.5990 C.3          1 FMN593   0.0000
    13 C8          69.8050    16.4250    21.5370 C.ar         1 FMN593   0.0000
    14 C8M         68.7900    15.3380    21.2870 C.3          1 FMN593   0.0000
    15 C9          71.1400    16.0750    21.7920 C.ar         1 FMN593   0.0000
    16 C9A         72.0680    17.0770    22.1710 C.ar         1 FMN593   0.0000
    17 N10         73.3950    16.8120    22.3980 N.pl3        1 FMN593   0.0000
    18 C10         74.2310    17.8330    22.8560 C.2          1 FMN593   0.0000
    19 C1'         74.0280    15.4650    22.2330 C.3          1 FMN593   0.0000
    20 C2'         75.1100    15.3210    21.1420 C.3          1 FMN593   0.0000
    21 O2'         74.6270    15.8260    19.8980 O.3          1 FMN593   0.0000
    22 C3'         75.5170    13.8510    21.0310 C.3          1 FMN593   0.0000
    23 O3'         75.8710    13.3400    22.3190 O.3          1 FMN593   0.0000
    24 C4'         76.6660    13.6370    20.0440 C.3          1 FMN593   0.0000
    25 O4'         76.2570    13.9160    18.6830 O.3          1 FMN593   0.0000
    26 C5'         77.2840    12.2370    20.0690 C.3          1 FMN593   0.0000
    27 O5'         76.2850    11.2920    19.7050 O.3          1 FMN593   0.0000
    28 P           75.8960    10.1060    20.7550 P.3          1 FMN593   0.0000
    29 O1P         74.5640     9.6720    20.2080 O.co2        1 FMN593   0.0000
    30 O2P         75.7090    10.7920    22.1080 O.co2        1 FMN593  -1.0000
    31 O3P         76.9810     9.0880    20.7520 O.co2        1 FMN593  -1.0000
    32 H1          76.5367    20.5762    23.9531 H            1 FMN593   0.0000
    33 H2          69.9422    19.6630    22.1666 H            1 FMN593   0.0000
    34 H7M1        67.3713    17.2736    21.3080 H            1 FMN593   0.0000
    35 H7M2        67.5640    18.3741    22.4989 H            1 FMN593   0.0000
    36 H7M3        67.7500    18.8185    20.9386 H            1 FMN593   0.0000
    37 H8M1        69.2571    14.4573    21.2091 H            1 FMN593   0.0000
    38 H8M2        68.1421    15.3055    22.0480 H            1 FMN593   0.0000
    39 H8M3        68.2978    15.5304    20.4381 H            1 FMN593   0.0000
    40 H9          71.4350    15.1233    21.7067 H            1 FMN593   0.0000
    41 H1'1        73.2989    14.8143    22.0209 H            1 FMN593   0.0000
    42 H1'2        74.4483    15.2214    23.1071 H            1 FMN593   0.0000
    43 H2'         75.9109    15.8545    21.4140 H            1 FMN593   0.0000
    44 H13         74.8473    16.7987    19.8250 H            1 FMN593   0.0000
    45 H3'         74.7262    13.3356    20.7009 H            1 FMN593   0.0000
    46 H15         76.1352    12.3792    22.2353 H            1 FMN593   0.0000
    47 H4'         77.3881    14.2875    20.2792 H            1 FMN593   0.0000
    48 H17         75.5421    14.6152    18.6865 H            1 FMN593   0.0000
    49 H5'1        77.6205    12.0339    20.9885 H            1 FMN593   0.0000
    50 H5'2        78.0426    12.1922    19.4190 H            1 FMN593   0.0000
@<TRIPOS>BOND
     1    1    2       1
     2    1   18       2
     3    2    3       2
     4    2    4       1
     5    4    5       1
     6    5    6       2
     7    5    7       1
     8    7    8       2
     9    7   18       1
    10    8    9       1
    11    9   10      ar
    12    9   16      ar
    13   10   11      ar
    14   11   12       1
    15   11   13      ar
    16   13   14       1
    17   13   15      ar
    18   15   16      ar
    19   16   17       1
    20   17   18       1
    21   17   19       1
    22   19   20       1
    23   20   21       1
    24   20   22       1
    25   22   23       1
    26   22   24       1
    27   24   25       1
    28   24   26       1
    29   26   27       1
    30   27   28       1
    31   28   29      ar
    32   28   30      ar
    33   28   31      ar
    34    4   32       1
    35   10   33       1
    36   12   34       1
    37   12   35       1
    38   12   36       1
    39   14   37       1
    40   14   38       1
    41   14   39       1
    42   15   40       1
    43   19   41       1
    44   19   42       1
    45   20   43       1
    46   21   44       1
    47   22   45       1
    48   23   46       1
    49   24   47       1
    50   25   48       1
    51   26   49       1
    52   26   50       1
@<TRIPOS>SUBSTRUCTURE
     1 FMN593      1 GROUP             4 A     FMN     0 **** FMN A 593
