@<TRIPOS>MOLECULE
4wji_NAP_1_ligand
   73    77     1     0     0
SMALL
NO_CHARGES


@<TRIPOS>ATOM
     1 PA          30.7950    -1.5370     5.3810 P.3          1 NAP301   0.0000
     2 O1A         31.1800    -2.8230     6.0050 O.co2        1 NAP301   0.0000
     3 O2A         31.8120    -0.5060     5.0250 O.co2        1 NAP301  -1.0000
     4 O5B         29.9850    -1.8730     4.0360 O.3          1 NAP301   0.0000
     5 C5B         29.6640    -0.8350     3.1180 C.3          1 NAP301   0.0000
     6 C4B         28.7810    -1.3300     1.9740 C.3          1 NAP301   0.0000
     7 O4B         28.2670    -0.1930     1.2900 O.3          1 NAP301   0.0000
     8 C3B         29.5560    -2.1060     0.9240 C.3          1 NAP301   0.0000
     9 O3B         28.7050    -2.9960     0.2200 O.3          1 NAP301   0.0000
    10 C2B         29.9730    -1.0350    -0.0490 C.3          1 NAP301   0.0000
    11 O2B         30.1350    -1.5320    -1.3480 O.3          1 NAP301   0.0000
    12 C1B         28.7700    -0.1320    -0.0330 C.3          1 NAP301   0.0000
    13 N9A         28.9750     1.2890    -0.4260 N.pl3        1 NAP301   0.0000
    14 C8A         29.8680     2.1440     0.0460 C.2          1 NAP301   0.0000
    15 N7A         29.7650     3.3500    -0.4510 N.2          1 NAP301   0.0000
    16 C5A         28.7240     3.2710    -1.3260 C.ar         1 NAP301   0.0000
    17 C6A         28.1200     4.2130    -2.1830 C.ar         1 NAP301   0.0000
    18 N6A         28.5640     5.4830    -2.2470 N.pl3        1 NAP301   0.0000
    19 N1A         27.0900     3.8060    -2.8950 N.ar         1 NAP301   0.0000
    20 C2A         26.6730     2.5550    -2.8000 C.ar         1 NAP301   0.0000
    21 N3A         27.1780     1.6000    -2.0420 N.ar         1 NAP301   0.0000
    22 C4A         28.2160     1.9930    -1.3150 C.ar         1 NAP301   0.0000
    23 O3          29.6450    -0.8180     6.2340 O.3          1 NAP301   0.0000
    24 PN          28.6270    -1.3220     7.3570 P.3          1 NAP301   0.0000
    25 O1N         29.3720    -1.2910     8.5940 O.co2        1 NAP301   0.0000
    26 O2N         27.9500    -2.5490     6.9400 O.co2        1 NAP301  -1.0000
    27 O5D         27.5910    -0.0860     7.4240 O.3          1 NAP301   0.0000
    28 C5D         26.4790     0.0130     6.5700 C.3          1 NAP301   0.0000
    29 C4D         25.4130     0.8650     7.2540 C.3          1 NAP301   0.0000
    30 O4D         25.1300     0.2940     8.5150 O.3          1 NAP301   0.0000
    31 C3D         25.8500     2.2710     7.5350 C.3          1 NAP301   0.0000
    32 O3D         24.7820     3.1660     7.2740 O.3          1 NAP301   0.0000
    33 C2D         26.2080     2.2770     9.0020 C.3          1 NAP301   0.0000
    34 O2D         26.0090     3.5570     9.5450 O.3          1 NAP301   0.0000
    35 C1D         25.1710     1.2800     9.5180 C.3          1 NAP301   0.0000
    36 N1N         25.5480     0.5390    10.7320 N.ar         1 NAP301   1.0000
    37 C2N         26.8180     0.1950    10.9580 C.ar         1 NAP301   0.0000
    38 C3N         27.1750    -0.4940    12.0920 C.ar         1 NAP301   0.0000
    39 C7N         28.5960    -0.8880    12.4230 C.2          1 NAP301   0.0000
    40 O7N         28.8690    -1.1750    13.5570 O.2          1 NAP301   0.0000
    41 N7N         29.4720    -0.9010    11.4430 N.am         1 NAP301   0.0000
    42 C4N         26.1860    -0.8310    12.9780 C.ar         1 NAP301   0.0000
    43 C5N         24.8890    -0.4850    12.7020 C.ar         1 NAP301   0.0000
    44 C6N         24.5750     0.2340    11.5810 C.ar         1 NAP301   0.0000
    45 P2B         31.5920    -1.7360    -1.9990 P.3          1 NAP301   0.0000
    46 O1X         32.4280    -2.4190    -0.9690 O.co2        1 NAP301   0.0000
    47 O2X         31.3120    -2.5930    -3.2000 O.co2        1 NAP301  -1.0000
    48 O3X         32.1800    -0.3830    -2.3520 O.co2        1 NAP301  -1.0000
    49 H5B1        30.5125    -0.4697     2.7352 H            1 NAP301   0.0000
    50 H5B2        29.1801    -0.1099     3.6079 H            1 NAP301   0.0000
    51 H4B         28.0311    -1.8865     2.3318 H            1 NAP301   0.0000
    52 H3B         30.3446    -2.5785     1.3175 H            1 NAP301   0.0000
    53 H5          29.0479    -3.1185    -0.7113 H            1 NAP301   0.0000
    54 H2B         30.7933    -0.5563     0.2640 H            1 NAP301   0.0000
    55 H1B         28.0817    -0.5245    -0.6430 H            1 NAP301   0.0000
    56 H8A         30.5599     1.8909     0.7222 H            1 NAP301   0.0000
    57 H6A1        28.1222     6.1368    -2.8614 H            1 NAP301   0.0000
    58 H6A2        29.3354     5.7721    -1.6802 H            1 NAP301   0.0000
    59 H2A         25.8873     2.3045    -3.3656 H            1 NAP301   0.0000
    60 H5D1        26.1137    -0.8994     6.3856 H            1 NAP301   0.0000
    61 H5D2        26.7525     0.4427     5.7094 H            1 NAP301   0.0000
    62 H4D         24.5830     0.8762     6.6963 H            1 NAP301   0.0000
    63 H3D         26.6474     2.5068     6.9796 H            1 NAP301   0.0000
    64 H16         24.5098     3.0895     6.3148 H            1 NAP301   0.0000
    65 H2D         27.1411     1.9518     9.1556 H            1 NAP301   0.0000
    66 H18         26.1569     4.2465     8.8360 H            1 NAP301   0.0000
    67 H1D         24.2781     1.7166     9.6277 H            1 NAP301   0.0000
    68 H2N         27.5209     0.4428    10.2912 H            1 NAP301   0.0000
    69 H7N1        30.4216    -1.1566    11.6245 H            1 NAP301   0.0000
    70 H7N2        29.1888    -0.6553    10.5159 H            1 NAP301   0.0000
    71 H4N         26.4085    -1.3250    13.8185 H            1 NAP301   0.0000
    72 H5N         24.1612    -0.7622    13.3293 H            1 NAP301   0.0000
    73 H6N         23.6339     0.5230    11.4056 H            1 NAP301   0.0000
@<TRIPOS>BOND
     1    1    2      ar
     2    1    3      ar
     3    1    4       1
     4    1   23       1
     5    4    5       1
     6    5    6       1
     7    6    7       1
     8    6    8       1
     9    7   12       1
    10    8    9       1
    11    8   10       1
    12   10   11       1
    13   10   12       1
    14   11   45       1
    15   12   13       1
    16   13   14       1
    17   13   22       1
    18   14   15       2
    19   15   16       1
    20   16   17      ar
    21   16   22      ar
    22   17   18       1
    23   17   19      ar
    24   19   20      ar
    25   20   21      ar
    26   21   22      ar
    27   23   24       1
    28   24   25      ar
    29   24   26      ar
    30   24   27       1
    31   27   28       1
    32   28   29       1
    33   29   30       1
    34   29   31       1
    35   30   35       1
    36   31   32       1
    37   31   33       1
    38   33   34       1
    39   33   35       1
    40   35   36       1
    41   36   37      ar
    42   36   44      ar
    43   37   38      ar
    44   38   39       1
    45   38   42      ar
    46   39   40       2
    47   39   41      am
    48   42   43      ar
    49   43   44      ar
    50   45   46      ar
    51   45   47      ar
    52   45   48      ar
    53   43   72       1
    54    5   49       1
    55    5   50       1
    56    6   51       1
    57    8   52       1
    58    9   53       1
    59   10   54       1
    60   12   55       1
    61   14   56       1
    62   18   57       1
    63   18   58       1
    64   20   59       1
    65   44   73       1
    66   28   60       1
    67   28   61       1
    68   29   62       1
    69   31   63       1
    70   32   64       1
    71   33   65       1
    72   34   66       1
    73   35   67       1
    74   37   68       1
    75   41   69       1
    76   41   70       1
    77   42   71       1
@<TRIPOS>SUBSTRUCTURE
     1 NAP301      1 GROUP             4 A     NAP     0 **** NAP A 301
