@<TRIPOS>MOLECULE
1znq_NAD_3_ligand
   70    74     1     0     0
SMALL
NO_CHARGES


@<TRIPOS>ATOM
     1 PA          43.8210    41.4930    48.4110 P.3          1 NAD1004   0.0000
     2 O1A         42.6080    41.1070    49.2950 O.co2        1 NAD1004   0.0000
     3 O2A         44.4100    40.4220    47.4520 O.co2        1 NAD1004  -1.0000
     4 O5B         45.0040    42.0530    49.3880 O.3          1 NAD1004   0.0000
     5 C5B         44.6500    42.6640    50.6730 C.3          1 NAD1004   0.0000
     6 C4B         45.5470    42.0740    51.7880 C.3          1 NAD1004   0.0000
     7 O4B         45.2110    42.7600    53.0270 O.3          1 NAD1004   0.0000
     8 C3B         45.3270    40.5580    52.0950 C.3          1 NAD1004   0.0000
     9 O3B         46.5400    39.8110    51.8060 O.3          1 NAD1004   0.0000
    10 C2B         44.8690    40.5620    53.5830 C.3          1 NAD1004   0.0000
    11 O2B         45.3080    39.3310    54.2670 O.3          1 NAD1004   0.0000
    12 C1B         45.5230    41.8880    54.0870 C.3          1 NAD1004   0.0000
    13 N9A         44.9520    42.5830    55.2740 N.pl3        1 NAD1004   0.0000
    14 C8A         43.6100    42.6720    55.6660 C.2          1 NAD1004   0.0000
    15 N7A         43.4120    43.4040    56.8090 N.2          1 NAD1004   0.0000
    16 C5A         44.7240    43.8110    57.1750 C.ar         1 NAD1004   0.0000
    17 C6A         45.2070    44.6180    58.2670 C.ar         1 NAD1004   0.0000
    18 N6A         44.4750    45.1640    59.2200 N.pl3        1 NAD1004   0.0000
    19 N1A         46.5790    44.8520    58.3570 N.ar         1 NAD1004   0.0000
    20 C2A         47.3720    44.2860    57.3610 C.ar         1 NAD1004   0.0000
    21 N3A         47.0410    43.5330    56.3080 N.ar         1 NAD1004   0.0000
    22 C4A         45.6830    43.3270    56.2530 C.ar         1 NAD1004   0.0000
    23 O3          43.4450    42.7680    47.5320 O.3          1 NAD1004   0.0000
    24 PN          44.4050    43.5100    46.4180 P.3          1 NAD1004   0.0000
    25 O1N         43.8930    42.9820    45.1050 O.co2        1 NAD1004   0.0000
    26 O2N         45.8340    43.1470    46.7530 O.co2        1 NAD1004  -1.0000
    27 O5D         43.9340    45.0610    46.6350 O.3          1 NAD1004   0.0000
    28 C5D         44.9080    46.0020    47.1520 C.3          1 NAD1004   0.0000
    29 C4D         44.2680    47.3840    47.1870 C.3          1 NAD1004   0.0000
    30 O4D         44.8100    47.9540    45.9540 O.3          1 NAD1004   0.0000
    31 C3D         42.7340    47.4780    47.0070 C.3          1 NAD1004   0.0000
    32 O3D         42.2430    48.6510    47.6880 O.3          1 NAD1004   0.0000
    33 C2D         42.5430    47.6200    45.4920 C.3          1 NAD1004   0.0000
    34 O2D         41.3490    48.3750    45.1550 O.3          1 NAD1004   0.0000
    35 C1D         43.7870    48.3570    45.0400 C.3          1 NAD1004   0.0000
    36 N1N         44.1920    47.9500    43.6640 N.ar         1 NAD1004   1.0000
    37 C2N         44.0300    46.6260    43.2300 C.ar         1 NAD1004   0.0000
    38 C3N         44.4740    46.1580    41.8860 C.ar         1 NAD1004   0.0000
    39 C7N         44.2540    44.6880    41.6000 C.2          1 NAD1004   0.0000
    40 O7N         44.6140    44.2440    40.4650 O.2          1 NAD1004   0.0000
    41 N7N         43.6770    43.8360    42.5100 N.am         1 NAD1004   0.0000
    42 C4N         45.0750    47.1760    40.9330 C.ar         1 NAD1004   0.0000
    43 C5N         45.1470    48.5470    41.5170 C.ar         1 NAD1004   0.0000
    44 C6N         44.7630    48.9000    42.7450 C.ar         1 NAD1004   0.0000
    45 H5B1        43.6907    42.4724    50.8804 H            1 NAD1004   0.0000
    46 H5B2        44.7889    43.6530    50.6216 H            1 NAD1004   0.0000
    47 H4B         46.5085    42.2351    51.5654 H            1 NAD1004   0.0000
    48 H3B         44.5834    40.2114    51.5232 H            1 NAD1004   0.0000
    49 H5          47.1130    39.7761    52.6248 H            1 NAD1004   0.0000
    50 H2B         43.8730    40.6375    53.6297 H            1 NAD1004   0.0000
    51 H7          46.2123    39.4770    54.6682 H            1 NAD1004   0.0000
    52 H1B         46.5131    41.7824    54.1799 H            1 NAD1004   0.0000
    53 H8A         42.8640    42.2409    55.1585 H            1 NAD1004   0.0000
    54 H6A1        44.9117    45.7093    59.9355 H            1 NAD1004   0.0000
    55 H6A2        43.4837    45.0324    59.2265 H            1 NAD1004   0.0000
    56 H2A         48.3502    44.4744    57.4487 H            1 NAD1004   0.0000
    57 H5D1        45.7121    46.0169    46.5576 H            1 NAD1004   0.0000
    58 H5D2        45.1811    45.7326    48.0755 H            1 NAD1004   0.0000
    59 H4D         44.5701    47.9017    47.9875 H            1 NAD1004   0.0000
    60 H3D         42.2835    46.6528    47.3477 H            1 NAD1004   0.0000
    61 H17         41.2516    48.7130    47.5725 H            1 NAD1004   0.0000
    62 H2D         42.5074    46.7161    45.0658 H            1 NAD1004   0.0000
    63 H19         41.2662    48.4415    44.1607 H            1 NAD1004   0.0000
    64 H1D         43.6451    49.3458    45.0859 H            1 NAD1004   0.0000
    65 H2N         43.5987    45.9686    43.8479 H            1 NAD1004   0.0000
    66 H7N1        43.5499    42.8710    42.2807 H            1 NAD1004   0.0000
    67 H7N2        43.3840    44.1808    43.4018 H            1 NAD1004   0.0000
    68 H4N         45.3895    46.9511    40.0108 H            1 NAD1004   0.0000
    69 H5N         45.5179    49.2692    40.9332 H            1 NAD1004   0.0000
    70 H6N         44.8748    49.8504    43.0351 H            1 NAD1004   0.0000
@<TRIPOS>BOND
     1    1    2      ar
     2    1    3      ar
     3    1    4       1
     4    1   23       1
     5    4    5       1
     6    5    6       1
     7    6    7       1
     8    6    8       1
     9    7   12       1
    10    8    9       1
    11    8   10       1
    12   10   11       1
    13   10   12       1
    14   12   13       1
    15   13   14       1
    16   13   22       1
    17   14   15       2
    18   15   16       1
    19   16   17      ar
    20   16   22      ar
    21   17   18       1
    22   17   19      ar
    23   19   20      ar
    24   20   21      ar
    25   21   22      ar
    26   23   24       1
    27   24   25      ar
    28   24   26      ar
    29   24   27       1
    30   27   28       1
    31   28   29       1
    32   29   30       1
    33   29   31       1
    34   30   35       1
    35   31   32       1
    36   31   33       1
    37   33   34       1
    38   33   35       1
    39   35   36       1
    40   36   37      ar
    41   36   44      ar
    42   37   38      ar
    43   38   39       1
    44   38   42      ar
    45   39   40       2
    46   39   41      am
    47   42   43      ar
    48   43   44      ar
    49   44   70       1
    50    5   45       1
    51    5   46       1
    52    6   47       1
    53    8   48       1
    54    9   49       1
    55   10   50       1
    56   11   51       1
    57   12   52       1
    58   14   53       1
    59   18   54       1
    60   18   55       1
    61   20   56       1
    62   43   69       1
    63   28   57       1
    64   28   58       1
    65   29   59       1
    66   31   60       1
    67   32   61       1
    68   33   62       1
    69   34   63       1
    70   35   64       1
    71   37   65       1
    72   41   66       1
    73   41   67       1
    74   42   68       1
@<TRIPOS>SUBSTRUCTURE
     1 NAD1004     1 GROUP             4 Q     NAD     0 **** NAD Q1004
