@<TRIPOS>MOLECULE
1nhk_CMP_1_ligand
   34    37     1     0     0
SMALL
NO_CHARGES


@<TRIPOS>ATOM
     1 P           31.2030    54.4540    12.8640 P.3          1 CMP146   0.0000
     2 O1P         30.8420    53.0240    12.6920 O.3          1 CMP146   0.0000
     3 O2P         31.4550    55.2540    11.6420 O.2          1 CMP146   0.0000
     4 O5'         32.6010    54.4040    13.7390 O.3          1 CMP146   0.0000
     5 C5'         32.6020    54.1060    15.1480 C.3          1 CMP146   0.0000
     6 C4'         31.2230    54.2500    15.7530 C.3          1 CMP146   0.0000
     7 O4'         31.2020    54.3960    17.1550 O.3          1 CMP146   0.0000
     8 C3'         30.5240    55.4970    15.2380 C.3          1 CMP146   0.0000
     9 O3'         30.1850    55.3130    13.8450 O.3          1 CMP146   0.0000
    10 C2'         29.3500    55.6330    16.2110 C.3          1 CMP146   0.0000
    11 O2'         28.3130    54.7430    15.8350 O.3          1 CMP146   0.0000
    12 C1'         29.9570    55.0290    17.4870 C.3          1 CMP146   0.0000
    13 N9          30.1090    55.9760    18.6080 N.pl3        1 CMP146   0.0000
    14 C8          29.5260    55.9200    19.8420 C.2          1 CMP146   0.0000
    15 N7          29.8010    56.9360    20.5970 N.2          1 CMP146   0.0000
    16 C5          30.6170    57.7270    19.8060 C.ar         1 CMP146   0.0000
    17 C6          31.1510    59.0060    19.9880 C.ar         1 CMP146   0.0000
    18 N6          30.7850    59.7800    20.9900 N.pl3        1 CMP146   0.0000
    19 N1          31.9560    59.5020    19.0390 N.ar         1 CMP146   0.0000
    20 C2          32.0930    58.8010    17.9190 C.ar         1 CMP146   0.0000
    21 N3          31.5350    57.6480    17.5640 N.ar         1 CMP146   0.0000
    22 C4          30.8010    57.1560    18.5840 C.ar         1 CMP146   0.0000
    23 H1P         31.1648    52.5015    13.4812 H            1 CMP146   0.0000
    24 H5'1        33.2262    54.7349    15.6115 H            1 CMP146   0.0000
    25 H5'2        32.9169    53.1661    15.2799 H            1 CMP146   0.0000
    26 H4'         30.6775    53.4496    15.5046 H            1 CMP146   0.0000
    27 H3'         31.1316    56.2854    15.3337 H            1 CMP146   0.0000
    28 H2'         29.0395    56.5764    16.3280 H            1 CMP146   0.0000
    29 H7          27.4297    55.1287    16.1015 H            1 CMP146   0.0000
    30 H1'         29.3352    54.3087    17.7945 H            1 CMP146   0.0000
    31 H9          28.9407    55.1642    20.1356 H            1 CMP146   0.0000
    32 H10         31.1867    60.6901    21.0914 H            1 CMP146   0.0000
    33 H11         30.1056    59.4571    21.6489 H            1 CMP146   0.0000
    34 H12         32.7090    59.2012    17.2404 H            1 CMP146   0.0000
@<TRIPOS>BOND
     1    1    2       1
     2    1    3       2
     3    1    4       1
     4    1    9       1
     5    4    5       1
     6    5    6       1
     7    6    7       1
     8    6    8       1
     9    7   12       1
    10    8    9       1
    11    8   10       1
    12   10   11       1
    13   10   12       1
    14   12   13       1
    15   13   14       1
    16   13   22       1
    17   14   15       2
    18   15   16       1
    19   16   17      ar
    20   16   22      ar
    21   17   18       1
    22   17   19      ar
    23   19   20      ar
    24   20   21      ar
    25   21   22      ar
    26    2   23       1
    27    5   24       1
    28    5   25       1
    29    6   26       1
    30    8   27       1
    31   10   28       1
    32   11   29       1
    33   12   30       1
    34   14   31       1
    35   18   32       1
    36   18   33       1
    37   20   34       1
@<TRIPOS>SUBSTRUCTURE
     1 CMP146      1 GROUP             4 L     CMP     0 **** CMP L 146
