@<TRIPOS>MOLECULE
3s55_NAD_2_ligand
   70    74     1     0     0
SMALL
NO_CHARGES


@<TRIPOS>ATOM
     1 PA          50.3430   -37.0830    22.6490 P.3          1 NAD279   0.0000
     2 O1A         51.4380   -37.2790    23.6680 O.co2        1 NAD279   0.0000
     3 O2A         50.1570   -38.2100    21.6240 O.co2        1 NAD279  -1.0000
     4 O5B         50.5160   -35.7190    21.8750 O.3          1 NAD279   0.0000
     5 C5B         51.1670   -34.6060    22.4820 C.3          1 NAD279   0.0000
     6 C4B         52.2730   -34.1150    21.5530 C.3          1 NAD279   0.0000
     7 O4B         52.9010   -32.9520    22.1380 O.3          1 NAD279   0.0000
     8 C3B         53.3620   -35.1780    21.3180 C.3          1 NAD279   0.0000
     9 O3B         53.6750   -35.3960    19.9110 O.3          1 NAD279   0.0000
    10 C2B         54.5410   -34.5970    22.0770 C.3          1 NAD279   0.0000
    11 O2B         55.8020   -34.9470    21.5330 O.3          1 NAD279   0.0000
    12 C1B         54.3070   -33.1020    21.9550 C.3          1 NAD279   0.0000
    13 N9A         55.0170   -32.3480    23.0030 N.pl3        1 NAD279   0.0000
    14 C8A         55.1270   -32.6400    24.3130 C.2          1 NAD279   0.0000
    15 N7A         55.8500   -31.6620    24.9160 N.2          1 NAD279   0.0000
    16 C5A         56.1860   -30.7650    23.9790 C.ar         1 NAD279   0.0000
    17 C6A         56.9090   -29.5780    23.9950 C.ar         1 NAD279   0.0000
    18 N6A         57.4690   -29.0830    25.1370 N.pl3        1 NAD279   0.0000
    19 N1A         57.0470   -28.9060    22.8230 N.ar         1 NAD279   0.0000
    20 C2A         56.5130   -29.3670    21.6860 C.ar         1 NAD279   0.0000
    21 N3A         55.8230   -30.5050    21.6280 N.ar         1 NAD279   0.0000
    22 C4A         55.6520   -31.2080    22.7720 C.ar         1 NAD279   0.0000
    23 O3          48.9510   -36.9150    23.4280 O.3          1 NAD279   0.0000
    24 PN          47.6240   -36.1410    22.9760 P.3          1 NAD279   0.0000
    25 O1N         46.5060   -36.7950    23.7530 O.co2        1 NAD279   0.0000
    26 O2N         47.5300   -35.9430    21.4850 O.co2        1 NAD279  -1.0000
    27 O5D         47.8870   -34.6740    23.6060 O.3          1 NAD279   0.0000
    28 C5D         47.4270   -33.4810    22.9720 C.3          1 NAD279   0.0000
    29 C4D         46.8380   -32.4720    23.9730 C.3          1 NAD279   0.0000
    30 O4D         45.5740   -32.9750    24.4580 O.3          1 NAD279   0.0000
    31 C3D         47.6990   -32.2040    25.2040 C.3          1 NAD279   0.0000
    32 O3D         47.5940   -30.8000    25.5610 O.3          1 NAD279   0.0000
    33 C2D         47.0300   -33.0610    26.2660 C.3          1 NAD279   0.0000
    34 O2D         47.2340   -32.5370    27.5720 O.3          1 NAD279   0.0000
    35 C1D         45.5730   -32.8800    25.8750 C.3          1 NAD279   0.0000
    36 N1N         44.6360   -33.8370    26.4370 N.ar         1 NAD279   1.0000
    37 C2N         44.7220   -35.1550    26.1280 C.ar         1 NAD279   0.0000
    38 C3N         43.7980   -36.0580    26.6670 C.ar         1 NAD279   0.0000
    39 C7N         43.8820   -37.5100    26.3250 C.2          1 NAD279   0.0000
    40 O7N         43.1070   -38.2700    26.8750 O.2          1 NAD279   0.0000
    41 N7N         44.7510   -37.9150    25.3930 N.am         1 NAD279   0.0000
    42 C4N         42.7690   -35.6010    27.5140 C.ar         1 NAD279   0.0000
    43 C5N         42.7040   -34.2240    27.7960 C.ar         1 NAD279   0.0000
    44 C6N         43.6510   -33.3460    27.2370 C.ar         1 NAD279   0.0000
    45 H5B1        51.5625   -34.8846    23.3572 H            1 NAD279   0.0000
    46 H5B2        50.5053   -33.8718    22.6339 H            1 NAD279   0.0000
    47 H4B         51.8708   -33.8605    20.6735 H            1 NAD279   0.0000
    48 H3B         53.0846   -36.0419    21.7383 H            1 NAD279   0.0000
    49 H5          54.0008   -34.5418    19.5058 H            1 NAD279   0.0000
    50 H2B         54.4964   -34.8715    23.0376 H            1 NAD279   0.0000
    51 H7          56.0744   -34.2632    20.8561 H            1 NAD279   0.0000
    52 H1B         54.5776   -32.7789    21.0481 H            1 NAD279   0.0000
    53 H8A         54.7405   -33.4433    24.7661 H            1 NAD279   0.0000
    54 H6A1        57.9828   -28.2255    25.1109 H            1 NAD279   0.0000
    55 H6A2        57.3655   -29.5779    25.9998 H            1 NAD279   0.0000
    56 H2A         56.6367   -28.8367    20.8473 H            1 NAD279   0.0000
    57 H5D1        46.7203   -33.7231    22.3071 H            1 NAD279   0.0000
    58 H5D2        48.1966   -33.0518    22.4992 H            1 NAD279   0.0000
    59 H4D         46.6780   -31.6062    23.4989 H            1 NAD279   0.0000
    60 H3D         48.6496   -32.4765    25.0554 H            1 NAD279   0.0000
    61 H17         46.6944   -30.4545    25.2938 H            1 NAD279   0.0000
    62 H2D         47.3141   -34.0177    26.2026 H            1 NAD279   0.0000
    63 H19         48.2140   -32.5022    27.7679 H            1 NAD279   0.0000
    64 H1D         45.2838   -31.9585    26.1341 H            1 NAD279   0.0000
    65 H2N         45.4434   -35.4807    25.5169 H            1 NAD279   0.0000
    66 H7N1        44.8151   -38.8846    25.1567 H            1 NAD279   0.0000
    67 H7N2        45.3369   -37.2483    24.9322 H            1 NAD279   0.0000
    68 H4N         42.1035   -36.2375    27.9038 H            1 NAD279   0.0000
    69 H5N         41.9849   -33.8694    28.3936 H            1 NAD279   0.0000
    70 H6N         43.6003   -32.3655    27.4269 H            1 NAD279   0.0000
@<TRIPOS>BOND
     1    1    2      ar
     2    1    3      ar
     3    1    4       1
     4    1   23       1
     5    4    5       1
     6    5    6       1
     7    6    7       1
     8    6    8       1
     9    7   12       1
    10    8    9       1
    11    8   10       1
    12   10   11       1
    13   10   12       1
    14   12   13       1
    15   13   14       1
    16   13   22       1
    17   14   15       2
    18   15   16       1
    19   16   17      ar
    20   16   22      ar
    21   17   18       1
    22   17   19      ar
    23   19   20      ar
    24   20   21      ar
    25   21   22      ar
    26   23   24       1
    27   24   25      ar
    28   24   26      ar
    29   24   27       1
    30   27   28       1
    31   28   29       1
    32   29   30       1
    33   29   31       1
    34   30   35       1
    35   31   32       1
    36   31   33       1
    37   33   34       1
    38   33   35       1
    39   35   36       1
    40   36   37      ar
    41   36   44      ar
    42   37   38      ar
    43   38   39       1
    44   38   42      ar
    45   39   40       2
    46   39   41      am
    47   42   43      ar
    48   43   44      ar
    49   44   70       1
    50    5   45       1
    51    5   46       1
    52    6   47       1
    53    8   48       1
    54    9   49       1
    55   10   50       1
    56   11   51       1
    57   12   52       1
    58   14   53       1
    59   18   54       1
    60   18   55       1
    61   20   56       1
    62   43   69       1
    63   28   57       1
    64   28   58       1
    65   29   59       1
    66   31   60       1
    67   32   61       1
    68   33   62       1
    69   34   63       1
    70   35   64       1
    71   37   65       1
    72   41   66       1
    73   41   67       1
    74   42   68       1
@<TRIPOS>SUBSTRUCTURE
     1 NAD279      1 GROUP             4 B     NAD     0 **** NAD B 279
