@<TRIPOS>MOLECULE
3gsb_GAB_1_ligand
   16    16     1     0     0
SMALL
NO_CHARGES


@<TRIPOS>ATOM
     1 C1'          9.9800    26.0350   -31.2640 C.2          1 GAB500   0.0000
     2 O1'          9.5490    27.2060   -31.3040 O.co2        1 GAB500   0.0000
     3 O2'         10.7910    25.9800   -30.2110 O.co2        1 GAB500  -1.0000
     4 C1           9.6730    24.8850   -32.1070 C.ar         1 GAB500   0.0000
     5 C2           8.6490    25.0210   -33.2260 C.ar         1 GAB500   0.0000
     6 C3           8.6050    23.8830   -34.1700 C.ar         1 GAB500   0.0000
     7 C4           9.3300    22.6770   -33.9140 C.ar         1 GAB500   0.0000
     8 C5          10.0810    22.5640   -32.7770 C.ar         1 GAB500   0.0000
     9 C6          10.2710    23.6860   -31.8670 C.ar         1 GAB500   0.0000
    10 N3           7.8110    23.9800   -35.2310 N.pl3        1 GAB500   0.0000
    11 H1           8.0522    25.8184   -33.3157 H            1 GAB500   0.0000
    12 H2           9.2878    21.9187   -34.5646 H            1 GAB500   0.0000
    13 H3          10.5118    21.6870   -32.5641 H            1 GAB500   0.0000
    14 H4          10.8470    23.5740   -31.0573 H            1 GAB500   0.0000
    15 H5           7.7595    23.2274   -35.8874 H            1 GAB500   0.0000
    16 H6           7.2650    24.8056   -35.3731 H            1 GAB500   0.0000
@<TRIPOS>BOND
     1    1    2      ar
     2    1    3      ar
     3    1    4       1
     4    4    5      ar
     5    4    9      ar
     6    5    6      ar
     7    6    7      ar
     8    6   10       1
     9    7    8      ar
    10    8    9      ar
    11   10   16       1
    12    5   11       1
    13    7   12       1
    14    8   13       1
    15    9   14       1
    16   10   15       1
@<TRIPOS>SUBSTRUCTURE
     1 GAB500      1 GROUP             4 A     GAB     0 **** GAB A 500
