@<TRIPOS>MOLECULE
4u0s_ADP_1_ligand
   39    41     1     0     0
SMALL
NO_CHARGES


@<TRIPOS>ATOM
     1 PB         -10.5560   -87.4830    94.4930 P.3          1 ADP501   0.0000
     2 O1B        -10.7100   -86.8200    93.1620 O.co2        1 ADP501   0.0000
     3 O2B        -11.1370   -86.5250    95.5140 O.co2        1 ADP501  -1.0000
     4 O3B        -11.2490   -88.7770    94.4600 O.co2        1 ADP501  -1.0000
     5 PA          -8.1040   -89.0660    94.5630 P.3          1 ADP501   0.0000
     6 O1A         -8.8970   -89.9880    93.6620 O.co2        1 ADP501   0.0000
     7 O2A         -7.9750   -89.7590    95.8680 O.co2        1 ADP501  -1.0000
     8 O3A         -9.0040   -87.7560    94.7860 O.3          1 ADP501   0.0000
     9 O5'         -6.7890   -88.6480    93.8220 O.3          1 ADP501   0.0000
    10 C5'         -6.8420   -87.8860    92.6090 C.3          1 ADP501   0.0000
    11 C4'         -6.0920   -86.6060    92.8520 C.3          1 ADP501   0.0000
    12 O4'         -4.6850   -86.8890    92.8130 O.3          1 ADP501   0.0000
    13 C3'         -6.3190   -85.5490    91.7920 C.3          1 ADP501   0.0000
    14 O3'         -7.3260   -84.6770    92.2570 O.3          1 ADP501   0.0000
    15 C2'         -5.0240   -84.7600    91.7920 C.3          1 ADP501   0.0000
    16 O2'         -5.1900   -83.6270    92.6230 O.3          1 ADP501   0.0000
    17 C1'         -3.9940   -85.7540    92.3410 C.3          1 ADP501   0.0000
    18 N9          -2.9970   -86.1940    91.3700 N.pl3        1 ADP501   0.0000
    19 C8          -3.1940   -86.4450    90.0380 C.2          1 ADP501   0.0000
    20 N7          -2.1000   -86.7490    89.3840 N.2          1 ADP501   0.0000
    21 C5          -1.1140   -86.7070    90.3570 C.ar         1 ADP501   0.0000
    22 C6           0.2760   -86.9070    90.3030 C.ar         1 ADP501   0.0000
    23 N6           0.9330   -87.1680    89.1800 N.pl3        1 ADP501   0.0000
    24 N1           0.9790   -86.7540    91.4480 N.ar         1 ADP501   0.0000
    25 C2           0.3230   -86.4090    92.5640 C.ar         1 ADP501   0.0000
    26 N3          -0.9860   -86.2080    92.7360 N.ar         1 ADP501   0.0000
    27 C4          -1.6530   -86.3710    91.5880 C.ar         1 ADP501   0.0000
    28 H5'1        -7.7926   -87.6859    92.3719 H            1 ADP501   0.0000
    29 H5'2        -6.4133   -88.3977    91.8644 H            1 ADP501   0.0000
    30 H4'         -6.3360   -86.2391    93.7497 H            1 ADP501   0.0000
    31 H3'         -6.5316   -85.9406    90.8967 H            1 ADP501   0.0000
    32 H5          -8.2207   -85.0151    91.9649 H            1 ADP501   0.0000
    33 H2'         -4.7825   -84.4814    90.8625 H            1 ADP501   0.0000
    34 H7          -5.5328   -82.8616    92.0784 H            1 ADP501   0.0000
    35 H1'         -3.5203   -85.3274    93.1115 H            1 ADP501   0.0000
    36 H9          -4.0933   -86.4002    89.6030 H            1 ADP501   0.0000
    37 H10          1.9238   -87.3017    89.1999 H            1 ADP501   0.0000
    38 H11          0.4373   -87.2310    88.3138 H            1 ADP501   0.0000
    39 H12          0.8902   -86.2853    93.3783 H            1 ADP501   0.0000
@<TRIPOS>BOND
     1    1    2      ar
     2    1    3      ar
     3    1    4      ar
     4    1    8       1
     5    5    6      ar
     6    5    7      ar
     7    5    8       1
     8    5    9       1
     9    9   10       1
    10   10   11       1
    11   11   12       1
    12   11   13       1
    13   12   17       1
    14   13   14       1
    15   13   15       1
    16   15   16       1
    17   15   17       1
    18   17   18       1
    19   18   19       1
    20   18   27       1
    21   19   20       2
    22   20   21       1
    23   21   22      ar
    24   21   27      ar
    25   22   23       1
    26   22   24      ar
    27   24   25      ar
    28   25   26      ar
    29   26   27      ar
    30   25   39       1
    31   23   38       1
    32   23   37       1
    33   10   28       1
    34   10   29       1
    35   11   30       1
    36   13   31       1
    37   14   32       1
    38   15   33       1
    39   16   34       1
    40   17   35       1
    41   19   36       1
@<TRIPOS>SUBSTRUCTURE
     1 ADP501      1 GROUP             4 A     ADP     0 **** ADP A 501
