@<TRIPOS>MOLECULE
./coach420/2ixl/ligand.pdb
 69 73 0 0 0
SMALL
GASTEIGER

@<TRIPOS>ATOM
      1  O4P       -9.2570   -2.5900    2.3750 O.2   1198  TRH1198    -0.5170
      2  P2        -8.0190   -1.8370    3.0700 P.3   1198  TRH1198     0.2208
      3  O3P       -6.6250   -2.5530    3.4170 O.3   1198  TRH1198    -0.4371
      4  O1        -7.7150   -0.4990    2.2270 O.3   1198  TRH1198    -0.2857
      5  C1        -6.5170   -0.3300    1.4820 C.3   1198  TRH1198     0.2741
      6  C2        -6.4460    1.1310    1.0520 C.3   1198  TRH1198     0.2409
      7  O2        -7.6510    1.4810    0.3500 O.3   1198  TRH1198    -0.2149
      8  C3        -5.2230    1.3200    0.1700 C.3   1198  TRH1198     0.2197
      9  O3        -5.1490    2.6810   -0.2750 O.3   1198  TRH1198    -0.2174
     10  C4        -5.2370    0.3290   -1.0080 C.3   1198  TRH1198     0.2118
     11  O4        -4.0320    0.4770   -1.7570 O.3   1198  TRH1198    -0.2177
     12  C5        -5.3880   -1.1120   -0.5060 C.3   1198  TRH1198     0.1508
     13  O5        -6.5400   -1.1980    0.3340 O.3   1198  TRH1198    -0.3281
     14  C6        -5.5110   -2.1290   -1.6420 C.3   1198  TRH1198     0.0350
     15  OPP       -8.5260   -1.1850    4.4530 O.3   1198  TRH1198    -0.2703
     16  P        -10.0040   -0.6510    4.8050 P.3   1198  TRH1198     0.2189
     17  O1P      -11.0360   -1.8780    4.9420 O.3   1198  TRH1198    -0.4371
     18  O2P      -10.3810    0.6350    3.9330 O.2   1198  TRH1198    -0.5170
     19  O5'       -9.6990   -0.0830    6.2830 O.3   1198  TRH1198    -0.3112
     20  C5'       -9.3410   -0.9430    7.3770 C.3   1198  TRH1198     0.1812
     21  C4'       -9.3640   -0.1500    8.6840 C.3   1198  TRH1198     0.1775
     22  O4'       -8.2930    0.8120    8.7220 O.3   1198  TRH1198    -0.3326
     23  C3'      -10.6430    0.6460    8.8810 C.3   1198  TRH1198     0.1859
     24  O3'      -11.0600    0.5470   10.2510 O.3   1198  TRH1198    -0.2203
     25  C2'      -10.2870    2.0910    8.5520 C.3   1198  TRH1198     0.0895
     26  C1'       -8.7980    2.1510    8.8580 C.3   1198  TRH1198     0.2107
     27  N11       -7.9650    3.0150    7.9820 N.ar  1198  TRH1198    -0.2559
     28  C21       -7.2600    4.0450    8.5270 C.ar  1198  TRH1198     0.3545
     29  O21       -7.3260    4.3270    9.8190 O.2   1198  TRH1198    -0.2443
     30  N31       -6.4650    4.8250    7.7750 N.ar  1198  TRH1198    -0.1533
     31  C41       -6.3430    4.5830    6.4570 C.ar  1198  TRH1198     0.2804
     32  O41       -5.5540    5.3640    5.7490 O.2   1198  TRH1198    -0.2654
     33  C51       -7.0450    3.5460    5.8570 C.ar  1198  TRH1198     0.0534
     34  C5A       -6.9240    3.2650    4.3730 C.3   1198  TRH1198     0.0377
     35  C61       -7.8630    2.7490    6.6590 C.ar  1198  TRH1198     0.0824
     36  P2        21.7680   -4.6380   11.9510 P.3   1198  TRH1198     0.3729
     37  O3P       20.2140   -5.0070   11.8020 O.3   1198  TRH1198    -0.1443
     38  O1        21.8990   -3.0410   12.1200 O.3   1198  TRH1198    -0.2681
     39  C1        20.8290   -2.2580   12.6340 C.3   1198  TRH1198     0.2754
     40  C2        21.1820   -0.7980   12.3670 C.3   1198  TRH1198     0.2409
     41  O2        22.4870   -0.5240   12.8900 O.3   1198  TRH1198    -0.2149
     42  C3        20.1710    0.1160   13.0490 C.3   1198  TRH1198     0.2197
     43  O3        20.5790    1.4750   12.8820 O.3   1198  TRH1198    -0.2174
     44  C4        20.0650   -0.2310   14.5400 C.3   1198  TRH1198     0.2118
     45  O4        19.0570    0.5720   15.1380 O.3   1198  TRH1198    -0.2177
     46  C5        19.7240   -1.7080   14.7250 C.3   1198  TRH1198     0.1508
     47  O5        20.6980   -2.5130   14.0470 O.3   1198  TRH1198    -0.3281
     48  C6        19.6640   -2.0980   16.2030 C.3   1198  TRH1198     0.0350
     49  OPP       22.3760   -4.8440   10.4590 O.3   1198  TRH1198    -0.2527
     50  P         23.9190   -4.9970   10.0070 P.3   1198  TRH1198     0.2203
     51  O1P       24.4800   -6.4310   10.4840 O.3   1198  TRH1198    -0.4371
     52  O2P       24.7590   -3.6690   10.3220 O.2   1198  TRH1198    -0.5170
     53  O5'       23.7240   -4.9720    8.4150 O.3   1198  TRH1198    -0.3112
     54  C5'       23.1740   -6.0680    7.6900 C.3   1198  TRH1198     0.1812
     55  C4'       23.4090   -5.8470    6.1960 C.3   1198  TRH1198     0.1775
     56  O4'       22.6430   -4.7120    5.7710 O.3   1198  TRH1198    -0.3326
     57  C3'       24.8550   -5.5430    5.8390 C.3   1198  TRH1198     0.1859
     58  O3'       25.1920   -6.2990    4.6570 O.3   1198  TRH1198    -0.2203
     59  C2'       24.9050   -4.0350    5.5750 C.3   1198  TRH1198     0.0895
     60  C1'       23.4670   -3.7050    5.1770 C.3   1198  TRH1198     0.2107
     61  N11       22.9150   -2.3880    5.5710 N.ar  1198  TRH1198    -0.2559
     62  C21       22.4550   -1.5400    4.6070 C.ar  1198  TRH1198     0.3545
     63  O21       22.5360   -1.8720    3.3220 O.2   1198  TRH1198    -0.2443
     64  N31       21.9130   -0.3520    4.9290 N.ar  1198  TRH1198    -0.1533
     65  C41       21.7960    0.0380    6.2020 C.ar  1198  TRH1198     0.2804
     66  O41       21.2390    1.2200    6.4720 O.2   1198  TRH1198    -0.2654
     67  C51       22.2390   -0.7990    7.2130 C.ar  1198  TRH1198     0.0534
     68  C5A       22.1220   -0.3790    8.6590 C.3   1198  TRH1198     0.0377
     69  C61       22.8040   -2.0250    6.8660 C.ar  1198  TRH1198     0.0824
@<TRIPOS>BOND
     1     1     2    2
     2     2     4    1
     3     2     3    1
     4     2    15    1
     5     4     5    1
     6     5    13    1
     7     5     6    1
     8     6     8    1
     9     6     7    1
    10     8    10    1
    11     8     9    1
    12    10    11    1
    13    10    12    1
    14    12    14    1
    15    12    13    1
    16    15    16    1
    17    16    18    2
    18    16    17    1
    19    16    19    1
    20    19    20    1
    21    20    21    1
    22    21    22    1
    23    21    23    1
    24    22    26    1
    25    23    25    1
    26    23    24    1
    27    25    26    1
    28    26    27    1
    29    27    35   ar
    30    27    28   ar
    31    28    30   ar
    32    28    29    2
    33    30    31   ar
    34    31    32    2
    35    31    33   ar
    36    33    34    1
    37    33    35   ar
    38    36    49    1
    39    36    37    1
    40    36    38    1
    41    38    39    1
    42    39    40    1
    43    39    47    1
    44    40    41    1
    45    40    42    1
    46    42    43    1
    47    42    44    1
    48    44    46    1
    49    44    45    1
    50    46    47    1
    51    46    48    1
    52    49    50    1
    53    50    53    1
    54    50    52    2
    55    50    51    1
    56    53    54    1
    57    54    55    1
    58    55    56    1
    59    55    57    1
    60    56    60    1
    61    57    58    1
    62    57    59    1
    63    59    60    1
    64    60    61    1
    65    61    62   ar
    66    61    69   ar
    67    62    63    2
    68    62    64   ar
    69    64    65   ar
    70    65    66    2
    71    65    67   ar
    72    67    69   ar
    73    67    68    1
