@<TRIPOS>MOLECULE
1agn_NAD_3_ligand
   70    74     1     0     0
SMALL
NO_CHARGES


@<TRIPOS>ATOM
     1 PA          35.4220    -6.6590   110.1940 P.3          1 NAD377   0.0000
     2 O1A         35.4760    -7.8210   111.1410 O.co2        1 NAD377   0.0000
     3 O2A         34.0050    -6.2100   110.1710 O.co2        1 NAD377  -1.0000
     4 O5B         35.9770    -7.3050   108.8340 O.3          1 NAD377   0.0000
     5 C5B         35.9460    -8.7910   108.7580 C.3          1 NAD377   0.0000
     6 C4B         35.3240    -9.1450   107.4100 C.3          1 NAD377   0.0000
     7 O4B         36.3390    -9.7640   106.6010 O.3          1 NAD377   0.0000
     8 C3B         34.1490   -10.1340   107.5850 C.3          1 NAD377   0.0000
     9 O3B         33.1570    -9.8840   106.5780 O.3          1 NAD377   0.0000
    10 C2B         34.9260   -11.4370   107.2530 C.3          1 NAD377   0.0000
    11 O2B         34.0180   -12.4460   106.7830 O.3          1 NAD377   0.0000
    12 C1B         35.8800   -11.0180   106.1120 C.3          1 NAD377   0.0000
    13 N9A         37.0660   -11.8180   105.9560 N.pl3        1 NAD377   0.0000
    14 C8A         37.9560   -12.3610   106.8820 C.2          1 NAD377   0.0000
    15 N7A         38.9790   -13.1280   106.3150 N.2          1 NAD377   0.0000
    16 C5A         38.6750   -13.0430   104.9770 C.ar         1 NAD377   0.0000
    17 C6A         39.3600   -13.5900   103.8970 C.ar         1 NAD377   0.0000
    18 N6A         40.3710   -14.4650   104.0670 N.pl3        1 NAD377   0.0000
    19 N1A         38.8730   -13.3180   102.6120 N.ar         1 NAD377   0.0000
    20 C2A         37.7410   -12.5160   102.4580 C.ar         1 NAD377   0.0000
    21 N3A         37.0350   -11.9630   103.5360 N.ar         1 NAD377   0.0000
    22 C4A         37.5620   -12.2600   104.7740 C.ar         1 NAD377   0.0000
    23 O3          36.3850    -5.5040   110.4930 O.3          1 NAD377   0.0000
    24 PN          36.1670    -4.0330   110.0220 P.3          1 NAD377   0.0000
    25 O1N         35.8770    -3.0610   111.1480 O.co2        1 NAD377   0.0000
    26 O2N         35.2100    -3.7880   108.8650 O.co2        1 NAD377  -1.0000
    27 O5D         37.6150    -3.6370   109.4760 O.3          1 NAD377   0.0000
    28 C5D         38.3610    -4.6370   108.6840 C.3          1 NAD377   0.0000
    29 C4D         39.7960    -4.1450   108.4780 C.3          1 NAD377   0.0000
    30 O4D         39.8110    -2.6800   108.4930 O.3          1 NAD377   0.0000
    31 C3D         40.6850    -4.5820   109.6570 C.3          1 NAD377   0.0000
    32 O3D         42.0530    -4.6410   109.2420 O.3          1 NAD377   0.0000
    33 C2D         40.4920    -3.3440   110.5400 C.3          1 NAD377   0.0000
    34 O2D         41.5180    -3.3260   111.5400 O.3          1 NAD377   0.0000
    35 C1D         40.7670    -2.2520   109.4550 C.3          1 NAD377   0.0000
    36 N1N         40.4160    -0.8270   109.6490 N.ar         1 NAD377   1.0000
    37 C2N         41.1600     0.1100   109.0870 C.ar         1 NAD377   0.0000
    38 C3N         40.8540     1.4050   109.2550 C.ar         1 NAD377   0.0000
    39 C7N         41.5400     2.3580   108.7180 C.2          1 NAD377   0.0000
    40 O7N         41.1880     3.5280   108.9560 O.2          1 NAD377   0.0000
    41 N7N         42.5930     2.0210   108.0000 N.am         1 NAD377   0.0000
    42 C4N         39.8070     1.8040   109.9670 C.ar         1 NAD377   0.0000
    43 C5N         39.0320     0.8970   110.5550 C.ar         1 NAD377   0.0000
    44 C6N         39.3690    -0.4490   110.3600 C.ar         1 NAD377   0.0000
    45 H5B1        35.3916    -9.1632   109.5024 H            1 NAD377   0.0000
    46 H5B2        36.8739    -9.1591   108.8173 H            1 NAD377   0.0000
    47 H4B         34.9984    -8.3127   106.9615 H            1 NAD377   0.0000
    48 H3B         33.7724   -10.1308   108.5114 H            1 NAD377   0.0000
    49 H5          33.3559   -10.4377   105.7694 H            1 NAD377   0.0000
    50 H2B         35.4393   -11.7599   108.0481 H            1 NAD377   0.0000
    51 H7          33.9321   -12.3802   105.7889 H            1 NAD377   0.0000
    52 H1B         35.3912   -10.9159   105.2456 H            1 NAD377   0.0000
    53 H8A         37.8702   -12.2145   107.8675 H            1 NAD377   0.0000
    54 H6A1        40.8452   -14.8418   103.2713 H            1 NAD377   0.0000
    55 H6A2        40.6469   -14.7373   104.9888 H            1 NAD377   0.0000
    56 H2A         37.4168   -12.3260   101.5313 H            1 NAD377   0.0000
    57 H5D1        37.9181    -4.7585   107.7957 H            1 NAD377   0.0000
    58 H5D2        38.3732    -5.5095   109.1725 H            1 NAD377   0.0000
    59 H4D         40.1642    -4.4903   107.6148 H            1 NAD377   0.0000
    60 H3D         40.3712    -5.4259   110.0921 H            1 NAD377   0.0000
    61 H17         42.6232    -4.9253   110.0128 H            1 NAD377   0.0000
    62 H2D         39.5720    -3.2832   110.9271 H            1 NAD377   0.0000
    63 H19         41.7871    -4.2640   111.7584 H            1 NAD377   0.0000
    64 H1D         41.6951    -2.3404   109.0932 H            1 NAD377   0.0000
    65 H2N         41.9532    -0.1474   108.5351 H            1 NAD377   0.0000
    66 H7N1        43.1507     2.7294   107.5674 H            1 NAD377   0.0000
    67 H7N2        42.8341     1.0570   107.8880 H            1 NAD377   0.0000
    68 H4N         39.6027     2.7784   110.0605 H            1 NAD377   0.0000
    69 H5N         38.2447     1.1635   111.1109 H            1 NAD377   0.0000
    70 H6N         38.7930    -1.1525   110.7763 H            1 NAD377   0.0000
@<TRIPOS>BOND
     1    1    2      ar
     2    1    3      ar
     3    1    4       1
     4    1   23       1
     5    4    5       1
     6    5    6       1
     7    6    7       1
     8    6    8       1
     9    7   12       1
    10    8    9       1
    11    8   10       1
    12   10   11       1
    13   10   12       1
    14   12   13       1
    15   13   14       1
    16   13   22       1
    17   14   15       2
    18   15   16       1
    19   16   17      ar
    20   16   22      ar
    21   17   18       1
    22   17   19      ar
    23   19   20      ar
    24   20   21      ar
    25   21   22      ar
    26   23   24       1
    27   24   25      ar
    28   24   26      ar
    29   24   27       1
    30   27   28       1
    31   28   29       1
    32   29   30       1
    33   29   31       1
    34   30   35       1
    35   31   32       1
    36   31   33       1
    37   33   34       1
    38   33   35       1
    39   35   36       1
    40   36   37      ar
    41   36   44      ar
    42   37   38      ar
    43   38   39       1
    44   38   42      ar
    45   39   40       2
    46   39   41      am
    47   42   43      ar
    48   43   44      ar
    49   44   70       1
    50    5   45       1
    51    5   46       1
    52    6   47       1
    53    8   48       1
    54    9   49       1
    55   10   50       1
    56   11   51       1
    57   12   52       1
    58   14   53       1
    59   18   54       1
    60   18   55       1
    61   20   56       1
    62   43   69       1
    63   28   57       1
    64   28   58       1
    65   29   59       1
    66   31   60       1
    67   32   61       1
    68   33   62       1
    69   34   63       1
    70   35   64       1
    71   37   65       1
    72   41   66       1
    73   41   67       1
    74   42   68       1
@<TRIPOS>SUBSTRUCTURE
     1 NAD377      1 GROUP             4 C     NAD     0 **** NAD C 377
