@<TRIPOS>MOLECULE
2pk3_A2R_1_ligand
   60    63     1     0     0
SMALL
NO_CHARGES


@<TRIPOS>ATOM
     1 OP3         14.6310    30.0530    24.1650 O.co2        1 A2R401   0.0000
     2 P2'         14.9620    30.3550    22.7130 P.3          1 A2R401   0.0000
     3 OP1         14.0650    31.3620    22.0290 O.co2        1 A2R401  -1.0000
     4 OP2         15.2200    29.1340    21.8440 O.co2        1 A2R401  -1.0000
     5 O2'         16.3700    31.1390    22.8630 O.3          1 A2R401   0.0000
     6 C2'         17.6150    30.4920    23.1040 C.3          1 A2R401   0.0000
     7 C1'         18.6110    31.0860    22.1190 C.3          1 A2R401   0.0000
     8 N9          18.4820    30.4500    20.8020 N.pl3        1 A2R401   0.0000
     9 C4          18.3330    31.1670    19.6780 C.ar         1 A2R401   0.0000
    10 N3          18.3290    32.5210    19.4430 N.ar         1 A2R401   0.0000
    11 C2          18.1670    32.9770    18.1900 C.ar         1 A2R401   0.0000
    12 N1          18.0200    32.1350    17.1530 N.ar         1 A2R401   0.0000
    13 C6          18.0160    30.7710    17.3530 C.ar         1 A2R401   0.0000
    14 N6          17.8560    29.9210    16.3150 N.pl3        1 A2R401   0.0000
    15 C5          18.1770    30.2670    18.6410 C.ar         1 A2R401   0.0000
    16 N7          18.2130    29.0150    19.1780 N.2          1 A2R401   0.0000
    17 C8          18.4200    29.1190    20.5130 C.2          1 A2R401   0.0000
    18 O4'         19.8570    30.9920    22.7400 O.3          1 A2R401   0.0000
    19 C3'         18.2080    30.8540    24.4500 C.3          1 A2R401   0.0000
    20 O3'         17.5610    32.0050    25.0300 O.3          1 A2R401   0.0000
    21 C4'         19.6640    31.1930    24.1290 C.3          1 A2R401   0.0000
    22 C5'         20.6120    30.2690    24.8680 C.3          1 A2R401   0.0000
    23 O5'         20.3880    30.4620    26.2570 O.3          1 A2R401   0.0000
    24 P           20.3390    29.2240    27.2950 P.3          1 A2R401   0.0000
    25 O1          19.8120    28.0060    26.5840 O.co2        1 A2R401   0.0000
    26 O2          19.5940    29.6990    28.5210 O.co2        1 A2R401  -1.0000
    27 O3          21.8850    28.9310    27.5670 O.3          1 A2R401   0.0000
    28 P1          22.9140    29.7370    28.4770 P.3          1 A2R401   0.0000
    29 O11         23.1220    28.9060    29.7210 O.co2        1 A2R401   0.0000
    30 O12         22.5820    31.2060    28.4580 O.co2        1 A2R401  -1.0000
    31 O15'        24.2610    29.5690    27.5930 O.3          1 A2R401   0.0000
    32 C15'        24.8150    30.6400    26.8100 C.3          1 A2R401   0.0000
    33 C14'        26.0040    30.1140    25.9900 C.3          1 A2R401   0.0000
    34 C13'        25.5690    29.1460    24.8930 C.3          1 A2R401   0.0000
    35 O13'        26.5030    29.2180    23.7820 O.3          1 A2R401   0.0000
    36 C12'        25.6830    27.7770    25.5720 C.3          1 A2R401   0.0000
    37 O12'        25.8060    26.7010    24.6320 O.3          1 A2R401   0.0000
    38 C11'        26.9430    27.9860    26.4130 C.3          1 A2R401   0.0000
    39 O14'        26.8820    29.3550    26.8480 O.3          1 A2R401   0.0000
    40 O11'        27.0110    27.0970    27.5270 O.3          1 A2R401   0.0000
    41 H2'         17.5389    29.5011    22.9933 H            1 A2R401   0.0000
    42 H1'         18.3945    32.0565    22.0127 H            1 A2R401   0.0000
    43 H3          18.1555    33.9633    18.0254 H            1 A2R401   0.0000
    44 H4          17.8549    28.9336    16.4729 H            1 A2R401   0.0000
    45 H5          17.7387    30.2793    15.3888 H            1 A2R401   0.0000
    46 H6          18.5101    28.3638    21.1623 H            1 A2R401   0.0000
    47 H3'         18.1600    30.0743    25.0743 H            1 A2R401   0.0000
    48 H8          18.2143    32.5022    25.6009 H            1 A2R401   0.0000
    49 H4'         19.8559    32.1448    24.3683 H            1 A2R401   0.0000
    50 H5'1        21.5588    30.4949    24.6389 H            1 A2R401   0.0000
    51 H5'2        20.4268    29.3182    24.6199 H            1 A2R401   0.0000
    52 H12         25.1265    31.3705    27.4177 H            1 A2R401   0.0000
    53 H13         24.1152    30.9969    26.1911 H            1 A2R401   0.0000
    54 H14         26.5035    30.8808    25.5869 H            1 A2R401   0.0000
    55 H15         24.6321    29.3289    24.5949 H            1 A2R401   0.0000
    56 H16         27.4111    29.4583    24.1250 H            1 A2R401   0.0000
    57 H17         24.8948    27.6232    26.1679 H            1 A2R401   0.0000
    58 H18         25.0008    26.6825    24.0392 H            1 A2R401   0.0000
    59 H19         27.7504    27.8574    25.8372 H            1 A2R401   0.0000
    60 H20         26.5440    26.2423    27.3004 H            1 A2R401   0.0000
@<TRIPOS>BOND
     1    1    2      ar
     2    2    3      ar
     3    2    4      ar
     4    2    5       1
     5    5    6       1
     6    6    7       1
     7    6   19       1
     8    7    8       1
     9    7   18       1
    10    8    9       1
    11    8   17       1
    12    9   10      ar
    13    9   15      ar
    14   10   11      ar
    15   11   12      ar
    16   12   13      ar
    17   13   14       1
    18   13   15      ar
    19   15   16       1
    20   16   17       2
    21   18   21       1
    22   19   20       1
    23   19   21       1
    24   21   22       1
    25   22   23       1
    26   23   24       1
    27   24   25      ar
    28   24   26      ar
    29   24   27       1
    30   27   28       1
    31   28   29      ar
    32   28   30      ar
    33   28   31       1
    34   31   32       1
    35   32   33       1
    36   33   34       1
    37   33   39       1
    38   34   35       1
    39   34   36       1
    40   36   37       1
    41   36   38       1
    42   38   39       1
    43   38   40       1
    44   40   60       1
    45   38   59       1
    46    6   41       1
    47    7   42       1
    48   11   43       1
    49   14   44       1
    50   14   45       1
    51   17   46       1
    52   19   47       1
    53   20   48       1
    54   21   49       1
    55   22   50       1
    56   22   51       1
    57   37   58       1
    58   36   57       1
    59   32   52       1
    60   32   53       1
    61   33   54       1
    62   34   55       1
    63   35   56       1
@<TRIPOS>SUBSTRUCTURE
     1 A2R401      1 GROUP             4 A     A2R     0 **** A2R A 401
