@<TRIPOS>MOLECULE
4u15_0HK_2_ligand
   48    52     1     0     0
SMALL
USER_CHARGES


@<TRIPOS>ATOM
     1 C28         19.3220    87.7410    56.6240 C.2          1 0HK1201   0.0000
     2 O29         19.0130    88.3530    57.6430 O.2          1 0HK1201   0.0000
     3 C31         21.0890    86.1530    55.8680 C.2          1 0HK1201   0.0000
     4 C32         21.0870    88.4860    55.0740 C.2          1 0HK1201   0.0000
     5 C34         20.2340    85.1830    55.3810 C.2          1 0HK1201   0.0000
     6 C35         20.7270    83.9410    55.0970 C.2          1 0HK1201   0.0000
     7 C36         22.0610    83.6950    55.2930 C.2          1 0HK1201   0.0000
     8 C41         21.0430    88.1910    53.7270 C.2          1 0HK1201   0.0000
     9 C42         21.3550    89.1660    52.8250 C.2          1 0HK1201   0.0000
    10 C43         21.7020    90.4150    53.2850 C.2          1 0HK1201   0.0000
    11 O10         16.9570    88.2820    51.7820 O.3          1 0HK1201   0.0000
    12 O11         18.4230    87.7410    55.5420 O.3          1 0HK1201   0.0000
    13 O33         21.5570    87.9530    57.3270 O.3          1 0HK1201   0.0000
    14 S37         22.6390    85.2730    55.9030 S.3          1 0HK1201   0.0000
    15 S44         21.5810    90.1980    55.0580 S.3          1 0HK1201   0.0000
    16 C1          13.9090    87.4310    54.6280 C.3          1 0HK1201   0.0000
    17 C3          15.9780    86.7340    53.6040 C.3          1 0HK1201   0.0000
    18 C4          16.5950    86.3460    54.9270 C.3          1 0HK1201   0.0000
    19 C5          17.0360    87.5740    55.7240 C.3          1 0HK1201   0.0000
    20 C6          16.3160    88.8790    55.3710 C.3          1 0HK1201   0.0000
    21 C7          15.7500    88.8380    53.9750 C.3          1 0HK1201   0.0000
    22 C8          16.9740    88.7850    53.1000 C.3          1 0HK1201   0.0000
    23 C9          17.1190    87.3350    52.8210 C.3          1 0HK1201   0.0000
    24 C12         14.1870    87.8460    52.4450 C.3          1 0HK1201   0.0000
    25 C30         20.7840    87.5840    56.2440 C.3          1 0HK1201   0.0000
    26 N2          14.9610    87.7090    53.6780 N.4          1 0HK1201   1.0000
    27 H1          19.2657    85.3877    55.2381 H            1 0HK1201   0.0000
    28 H2          20.1237    83.2223    54.7514 H            1 0HK1201   0.0000
    29 H3          22.5765    82.8527    55.1358 H            1 0HK1201   0.0000
    30 H4          20.7862    87.2759    53.4163 H            1 0HK1201   0.0000
    31 H5          21.3317    88.9753    51.8436 H            1 0HK1201   0.0000
    32 H6          21.9555    91.2308    52.7651 H            1 0HK1201   0.0000
    33 H7          21.0601    87.7588    58.1728 H            1 0HK1201   0.0000
    34 H8          13.2386    88.1728    54.6095 H            1 0HK1201   0.0000
    35 H9          13.4606    86.5704    54.3865 H            1 0HK1201   0.0000
    36 H10         14.2995    87.3574    55.5457 H            1 0HK1201   0.0000
    37 H11         15.6355    85.9194    53.1359 H            1 0HK1201   0.0000
    38 H12         17.3920    85.7667    54.7559 H            1 0HK1201   0.0000
    39 H13         15.9213    85.8365    55.4623 H            1 0HK1201   0.0000
    40 H14         16.8738    87.3860    56.6927 H            1 0HK1201   0.0000
    41 H15         16.9658    89.6363    55.4360 H            1 0HK1201   0.0000
    42 H16         15.5693    89.0239    56.0202 H            1 0HK1201   0.0000
    43 H17         15.2336    89.6743    53.7906 H            1 0HK1201   0.0000
    44 H18         17.7852    89.2876    53.3988 H            1 0HK1201   0.0000
    45 H19         18.0254    86.9297    52.9399 H            1 0HK1201   0.0000
    46 H20         14.8046    88.0451    51.6841 H            1 0HK1201   0.0000
    47 H21         13.6972    86.9935    52.2624 H            1 0HK1201   0.0000
    48 H22         13.5299    88.5931    52.5452 H            1 0HK1201   0.0000
@<TRIPOS>BOND
     1    1    2       2
     2    1   12       1
     3    1   25       1
     4    3    5       2
     5    3   14       1
     6    3   25       1
     7    4    8       2
     8    4   15       1
     9    4   25       1
    10    5    6       1
    11    6    7       2
    12    7   14       1
    13    8    9       1
    14    9   10       2
    15   10   15       1
    16   11   22       1
    17   11   23       1
    18   12   19       1
    19   13   25       1
    20   16   26       1
    21   17   18       1
    22   17   23       1
    23   17   26       1
    24   18   19       1
    25   19   20       1
    26   20   21       1
    27   21   22       1
    28   21   26       1
    29   22   23       1
    30   24   26       1
    31    5   27       1
    32    6   28       1
    33    7   29       1
    34    8   30       1
    35    9   31       1
    36   10   32       1
    37   13   33       1
    38   16   34       1
    39   16   35       1
    40   16   36       1
    41   17   37       1
    42   18   38       1
    43   18   39       1
    44   19   40       1
    45   20   41       1
    46   20   42       1
    47   21   43       1
    48   22   44       1
    49   23   45       1
    50   24   46       1
    51   24   47       1
    52   24   48       1
@<TRIPOS>SUBSTRUCTURE
     1 0HK1201     1 GROUP             4 B     0HK     0 **** 0HK B1201
