@<TRIPOS>MOLECULE
1psa_0ZL_1_ligand
   93    93     1     0     0
SMALL
NO_CHARGES


@<TRIPOS>ATOM
     1 C3          24.5720     7.9460    -0.2480 C.3          1 0ZL327   0.0000
     2 C4          25.7930     7.7200    -1.1590 C.3          1 0ZL327   0.0000
     3 O2          26.9380     7.8830    -0.4390 O.3          1 0ZL327   0.0000
     4 C1          28.2740     7.6890    -0.8960 C.2          1 0ZL327   0.0000
     5 O1          28.4940     7.1990    -2.0040 O.2          1 0ZL327   0.0000
     6 N           29.2550     8.0400    -0.0610 N.am         1 0ZL327   0.0000
     7 CA          30.6750     7.8380    -0.3540 C.3          1 0ZL327   0.0000
     8 C           31.0550     6.3760    -0.1460 C.2          1 0ZL327   0.0000
     9 O           30.4400     5.6110     0.6260 O.2          1 0ZL327   0.0000
    10 CB          31.5760     8.6390     0.5640 C.3          1 0ZL327   0.0000
    11 CG          31.3710    10.1120     0.6760 C.3          1 0ZL327   0.0000
    12 CD1         32.3230    10.5660     1.7640 C.3          1 0ZL327   0.0000
    13 CD2         31.5580    10.8150    -0.6550 C.3          1 0ZL327   0.0000
    14 N1          32.1180     6.0320    -0.8520 N.am         1 0ZL327   0.0000
    15 CA1         32.6630     4.7100    -0.7400 C.3          1 0ZL327   0.0000
    16 C2          34.1580     4.9210    -0.7980 C.2          1 0ZL327   0.0000
    17 O3          34.7590     4.9350    -1.8680 O.2          1 0ZL327   0.0000
    18 CB1         32.1300     3.8920    -1.8970 C.3          1 0ZL327   0.0000
    19 CG1         32.1780     2.3930    -1.9150 C.3          1 0ZL327   0.0000
    20 CD11        31.5150     1.7800    -0.7090 C.3          1 0ZL327   0.0000
    21 CD21        31.3940     1.9660    -3.1210 C.3          1 0ZL327   0.0000
    22 C11         36.2140     5.3720     0.3670 C.3          1 0ZL327   0.0000
    23 N2          34.7760     5.2020     0.3430 N.am         1 0ZL327   0.0000
    24 C21         36.9170     4.2000     1.0840 C.3          1 0ZL327   0.0000
    25 O21         36.1340     3.9150     2.2350 O.3          1 0ZL327   0.0000
    26 C31         36.9180     2.9340     0.2060 C.3          1 0ZL327   0.0000
    27 O31         37.9270     3.1510    -0.7650 O.3          1 0ZL327   0.0000
    28 C41         37.1920     1.6330     0.9010 C.3          1 0ZL327   0.0000
    29 C5          37.1210     0.4450    -0.0320 C.3          1 0ZL327   0.0000
    30 C6          35.7780     0.4500    -0.7400 C.3          1 0ZL327   0.0000
    31 C7          37.3630    -0.8360     0.7550 C.3          1 0ZL327   0.0000
    32 C7'         36.4970     6.7000     1.0190 C.3          1 0ZL327   0.0000
    33 C1'         35.8860     7.8910     0.3630 C.3          1 0ZL327   0.0000
    34 C2'         36.2150     7.9280    -1.1270 C.3          1 0ZL327   0.0000
    35 C6'         36.4150     9.0970     1.0560 C.3          1 0ZL327   0.0000
    36 C3'         35.7660     9.1850    -1.8110 C.3          1 0ZL327   0.0000
    37 C5'         35.8280    10.3150     0.4010 C.3          1 0ZL327   0.0000
    38 C4'         36.3150    10.3590    -1.0400 C.3          1 0ZL327   0.0000
    39 H1          23.7332     7.8258    -0.7789 H            1 0ZL327   0.0000
    40 H2          24.5891     7.2852     0.5024 H            1 0ZL327   0.0000
    41 H3          24.6009     8.8738     0.1241 H            1 0ZL327   0.0000
    42 H4          25.7750     8.3808    -1.9094 H            1 0ZL327   0.0000
    43 H5          25.7632     6.7923    -1.5310 H            1 0ZL327   0.0000
    44 H6          29.0066     8.4631     0.8104 H            1 0ZL327   0.0000
    45 HA          30.8568     8.0953    -1.3031 H            1 0ZL327   0.0000
    46 HB1         32.5147     8.4971     0.2497 H            1 0ZL327   0.0000
    47 HB2         31.4709     8.2581     1.4826 H            1 0ZL327   0.0000
    48 HG          30.4355    10.2759     0.9889 H            1 0ZL327   0.0000
    49 HD11        32.2363    11.5540     1.8918 H            1 0ZL327   0.0000
    50 HD12        32.0993    10.0983     2.6191 H            1 0ZL327   0.0000
    51 HD13        33.2617    10.3453     1.4990 H            1 0ZL327   0.0000
    52 HD21        31.4123    11.7972    -0.5366 H            1 0ZL327   0.0000
    53 HD22        32.4864    10.6537    -0.9896 H            1 0ZL327   0.0000
    54 HD23        30.8985    10.4576    -1.3163 H            1 0ZL327   0.0000
    55 H17         32.5440     6.6959    -1.4666 H            1 0ZL327   0.0000
    56 HA1         32.4012     4.2959     0.1318 H            1 0ZL327   0.0000
    57 HB11        32.6329     4.1955    -2.7063 H            1 0ZL327   0.0000
    58 HB12        31.1658     4.1399    -1.9912 H            1 0ZL327   0.0000
    59 HG1         33.1242     2.0777    -1.9877 H            1 0ZL327   0.0000
    60 H22         31.5730     0.7834    -0.7673 H            1 0ZL327   0.0000
    61 H23         31.9774     2.0928     0.1206 H            1 0ZL327   0.0000
    62 H24         30.5545     2.0569    -0.6799 H            1 0ZL327   0.0000
    63 H25         31.3934     0.9679    -3.1820 H            1 0ZL327   0.0000
    64 H26         30.4533     2.2956    -3.0409 H            1 0ZL327   0.0000
    65 H27         31.8128     2.3500    -3.9439 H            1 0ZL327   0.0000
    66 H28         36.5432     5.4074    -0.5766 H            1 0ZL327   0.0000
    67 H29         34.2478     5.2964     1.1869 H            1 0ZL327   0.0000
    68 H30         37.8494     4.4517     1.3435 H            1 0ZL327   0.0000
    69 H31         36.4625     4.4615     3.0053 H            1 0ZL327   0.0000
    70 H32         36.0356     2.8676    -0.2597 H            1 0ZL327   0.0000
    71 H33         38.6231     2.4372    -0.6877 H            1 0ZL327   0.0000
    72 H34         36.5157     1.5099     1.6273 H            1 0ZL327   0.0000
    73 H35         38.1077     1.6710     1.3011 H            1 0ZL327   0.0000
    74 H36         37.8422     0.5369    -0.7186 H            1 0ZL327   0.0000
    75 H37         35.7246    -0.3336    -1.3589 H            1 0ZL327   0.0000
    76 H38         35.0442     0.3909    -0.0632 H            1 0ZL327   0.0000
    77 H39         35.6807     1.2960    -1.2642 H            1 0ZL327   0.0000
    78 H40         37.3158    -1.6208     0.1371 H            1 0ZL327   0.0000
    79 H41         38.2675    -0.8003     1.1800 H            1 0ZL327   0.0000
    80 H42         36.6646    -0.9281     1.4648 H            1 0ZL327   0.0000
    81 H7'1        37.4883     6.8310     1.0296 H            1 0ZL327   0.0000
    82 H7'2        36.1561     6.6590     1.9582 H            1 0ZL327   0.0000
    83 H1'         34.8933     7.8556     0.4786 H            1 0ZL327   0.0000
    84 H2'1        35.7673     7.1506    -1.5688 H            1 0ZL327   0.0000
    85 H2'2        37.2059     7.8468    -1.2339 H            1 0ZL327   0.0000
    86 H6'1        37.4119     9.1201     0.9804 H            1 0ZL327   0.0000
    87 H6'2        36.1543     9.0736     2.0211 H            1 0ZL327   0.0000
    88 H3'1        34.7669     9.2254    -1.8243 H            1 0ZL327   0.0000
    89 H3'2        36.1128     9.2032    -2.7487 H            1 0ZL327   0.0000
    90 H5'1        36.1271    11.1374     0.8850 H            1 0ZL327   0.0000
    91 H5'2        34.8296    10.2618     0.4197 H            1 0ZL327   0.0000
    92 H4'1        36.0059    11.2086    -1.4674 H            1 0ZL327   0.0000
    93 H4'2        37.3143    10.3241    -1.0522 H            1 0ZL327   0.0000
@<TRIPOS>BOND
     1    1    2       1
     2    2    3       1
     3    3    4       1
     4    4    5       2
     5    4    6      am
     6    6    7       1
     7    7    8       1
     8    7   10       1
     9    8    9       2
    10    8   14      am
    11   10   11       1
    12   11   12       1
    13   11   13       1
    14   14   15       1
    15   15   16       1
    16   15   18       1
    17   16   17       2
    18   16   23      am
    19   18   19       1
    20   19   20       1
    21   19   21       1
    22   22   23       1
    23   22   24       1
    24   22   32       1
    25   24   25       1
    26   24   26       1
    27   26   27       1
    28   26   28       1
    29   28   29       1
    30   29   30       1
    31   29   31       1
    32   32   33       1
    33   33   34       1
    34   33   35       1
    35   34   36       1
    36   35   37       1
    37   36   38       1
    38   37   38       1
    39    1   39       1
    40    1   40       1
    41    1   41       1
    42    2   42       1
    43    2   43       1
    44    6   44       1
    45    7   45       1
    46   10   46       1
    47   10   47       1
    48   11   48       1
    49   12   49       1
    50   12   50       1
    51   12   51       1
    52   13   52       1
    53   13   53       1
    54   13   54       1
    55   14   55       1
    56   15   56       1
    57   18   57       1
    58   18   58       1
    59   19   59       1
    60   20   60       1
    61   20   61       1
    62   20   62       1
    63   21   63       1
    64   21   64       1
    65   21   65       1
    66   22   66       1
    67   23   67       1
    68   24   68       1
    69   25   69       1
    70   26   70       1
    71   27   71       1
    72   28   72       1
    73   28   73       1
    74   29   74       1
    75   30   75       1
    76   30   76       1
    77   30   77       1
    78   31   78       1
    79   31   79       1
    80   31   80       1
    81   32   81       1
    82   32   82       1
    83   33   83       1
    84   34   84       1
    85   34   85       1
    86   35   86       1
    87   35   87       1
    88   36   88       1
    89   36   89       1
    90   37   90       1
    91   37   91       1
    92   38   92       1
    93   38   93       1
@<TRIPOS>SUBSTRUCTURE
     1 0ZL327      1 GROUP             4 A     0ZL     0 **** 0ZL A 327
