@<TRIPOS>MOLECULE
3uwk_0DF_2_ligand
   28    30     1     0     0
SMALL
NO_CHARGES


@<TRIPOS>ATOM
     1 O1          -4.6240   -16.0570   -23.5080 O.2          1 0DF801   0.0000
     2 C3          -5.2890   -16.6840   -24.4050 C.2          1 0DF801   0.0000
     3 N1          -5.5260   -18.0020   -24.3090 N.pl3        1 0DF801   0.0000
     4 C7          -5.0380   -18.9170   -23.2440 C.3          1 0DF801   0.0000
     5 C2          -6.2510   -18.2930   -25.4180 C.ar         1 0DF801   0.0000
     6 C6          -6.8240   -19.5050   -25.8880 C.ar         1 0DF801   0.0000
     7 C5          -7.5470   -19.4390   -27.0650 C.ar         1 0DF801   0.0000
     8 C4          -7.7080   -18.2240   -27.7230 C.ar         1 0DF801   0.0000
     9 N3          -7.1670   -17.0780   -27.2740 N.ar         1 0DF801   0.0000
    10 C1          -6.4270   -17.0940   -26.1400 C.ar         1 0DF801   0.0000
    11 N2          -5.8020   -16.0820   -25.4950 N.pl3        1 0DF801   0.0000
    12 C8          -8.2030   -20.6550   -27.6370 C.ar         1 0DF801   0.0000
    13 C13         -8.7520   -21.5870   -26.7360 C.ar         1 0DF801   0.0000
    14 C12         -9.4110   -22.7070   -27.2610 C.ar         1 0DF801   0.0000
    15 C11         -9.5440   -22.8460   -28.6400 C.ar         1 0DF801   0.0000
    16 C10         -9.0300   -21.9000   -29.5300 C.ar         1 0DF801   0.0000
    17 C9          -8.3630   -20.7810   -29.0150 C.ar         1 0DF801   0.0000
    18 H1          -5.3668   -19.8440   -23.4245 H            1 0DF801   0.0000
    19 H2          -4.0381   -18.9140   -23.2343 H            1 0DF801   0.0000
    20 H3          -5.3808   -18.6086   -22.3567 H            1 0DF801   0.0000
    21 H4          -6.7099   -20.3653   -25.3912 H            1 0DF801   0.0000
    22 H5          -8.2482   -18.2021   -28.5643 H            1 0DF801   0.0000
    23 H6          -5.7368   -15.1207   -25.7626 H            1 0DF801   0.0000
    24 H7          -8.6739   -21.4535   -25.7480 H            1 0DF801   0.0000
    25 H8          -9.7841   -23.4033   -26.6478 H            1 0DF801   0.0000
    26 H9         -10.0212   -23.6460   -29.0037 H            1 0DF801   0.0000
    27 H10         -9.1363   -22.0195   -30.5171 H            1 0DF801   0.0000
    28 H11         -8.0050   -20.0792   -29.6309 H            1 0DF801   0.0000
@<TRIPOS>BOND
     1    1    2       2
     2    2    3       1
     3    2   11       1
     4    3    4       1
     5    3    5       1
     6    5    6      ar
     7    5   10      ar
     8    6    7      ar
     9    7    8      ar
    10    7   12       1
    11    8    9      ar
    12    9   10      ar
    13   10   11       1
    14   12   13      ar
    15   12   17      ar
    16   13   14      ar
    17   14   15      ar
    18   15   16      ar
    19   16   17      ar
    20    4   18       1
    21    4   19       1
    22    4   20       1
    23    6   21       1
    24    8   22       1
    25   11   23       1
    26   13   24       1
    27   14   25       1
    28   15   26       1
    29   16   27       1
    30   17   28       1
@<TRIPOS>SUBSTRUCTURE
     1 0DF801      1 GROUP             4 B     0DF     0 **** 0DF B 801
