@<TRIPOS>MOLECULE
2cls_GTP_2_ligand
   44    46     1     0     0
SMALL
NO_CHARGES


@<TRIPOS>ATOM
     1 PG          15.9210    -7.1280    33.8550 P.3          1 GTP500   0.0000
     2 O1G         14.4580    -6.8420    33.4960 O.co2        1 GTP500   0.0000
     3 O2G         16.7740    -6.8530    32.6010 O.co2        1 GTP500  -1.0000
     4 O3G         16.1620    -8.5040    34.3850 O.co2        1 GTP500  -1.0000
     5 O3B         16.3370    -5.9120    34.9250 O.3          1 GTP500   0.0000
     6 PB          17.8420    -5.4960    35.3940 P.3          1 GTP500   0.0000
     7 O1B         18.8680    -5.6580    34.2310 O.co2        1 GTP500   0.0000
     8 O2B         18.3960    -6.3080    36.5080 O.co2        1 GTP500  -1.0000
     9 O3A         17.6390    -3.9310    35.7480 O.3          1 GTP500   0.0000
    10 PA          18.5740    -2.6620    35.2480 P.3          1 GTP500   0.0000
    11 O1A         18.1370    -2.2330    33.7210 O.co2        1 GTP500   0.0000
    12 O2A         20.0280    -2.8960    35.2460 O.co2        1 GTP500  -1.0000
    13 O5'         18.0810    -1.6060    36.2420 O.3          1 GTP500   0.0000
    14 C5'         16.7950    -1.0760    36.2790 C.3          1 GTP500   0.0000
    15 C4'         16.9280     0.4040    36.7040 C.3          1 GTP500   0.0000
    16 O4'         17.3670     0.4390    38.1270 O.3          1 GTP500   0.0000
    17 C3'         18.0480     1.1220    36.0000 C.3          1 GTP500   0.0000
    18 O3'         17.5910     1.6390    34.7630 O.3          1 GTP500   0.0000
    19 C2'         18.3040     2.2800    36.9860 C.3          1 GTP500   0.0000
    20 O2'         17.3350     3.3430    36.8140 O.3          1 GTP500   0.0000
    21 C1'         18.1220     1.6140    38.3650 C.3          1 GTP500   0.0000
    22 N9          19.5110     1.3190    38.8430 N.pl3        1 GTP500   0.0000
    23 C8          20.4490     0.5220    38.2950 C.2          1 GTP500   0.0000
    24 N7          21.5710     0.5800    39.0220 N.2          1 GTP500   0.0000
    25 C5          21.3590     1.4420    40.0170 C.2          1 GTP500   0.0000
    26 C6          22.1390     1.9050    41.0750 C.2          1 GTP500   0.0000
    27 O6          23.3040     1.5350    41.2580 O.2          1 GTP500   0.0000
    28 N1          21.5590     2.8230    41.9370 N.pl3        1 GTP500   0.0000
    29 C2          20.2600     3.2830    41.7750 C.2          1 GTP500   0.0000
    30 N2          19.7390     4.1600    42.6350 N.pl3        1 GTP500   0.0000
    31 N3          19.5350     2.8260    40.7600 N.2          1 GTP500   0.0000
    32 C4          20.0540     1.9120    39.9050 C.2          1 GTP500   0.0000
    33 H5'1        16.2369    -1.5749    36.9421 H            1 GTP500   0.0000
    34 H5'2        16.3723    -1.1369    35.3748 H            1 GTP500   0.0000
    35 H4'         16.0618     0.8893    36.5851 H            1 GTP500   0.0000
    36 H3'         18.8537     0.5404    35.8881 H            1 GTP500   0.0000
    37 H5          18.3411     2.1139    34.3027 H            1 GTP500   0.0000
    38 H2'         19.2347     2.6311    36.8839 H            1 GTP500   0.0000
    39 H7          17.3942     3.7004    35.8819 H            1 GTP500   0.0000
    40 H1'         17.6463     2.2243    38.9985 H            1 GTP500   0.0000
    41 H9          20.3254    -0.0294    37.4699 H            1 GTP500   0.0000
    42 H10         22.0981     3.1672    42.7057 H            1 GTP500   0.0000
    43 H11         18.8019     4.4861    42.5105 H            1 GTP500   0.0000
    44 H12         20.2856     4.4912    43.4041 H            1 GTP500   0.0000
@<TRIPOS>BOND
     1    1    2      ar
     2    1    3      ar
     3    1    4      ar
     4    1    5       1
     5    5    6       1
     6    6    7      ar
     7    6    8      ar
     8    6    9       1
     9    9   10       1
    10   10   11      ar
    11   10   12      ar
    12   10   13       1
    13   13   14       1
    14   14   15       1
    15   15   16       1
    16   15   17       1
    17   16   21       1
    18   17   18       1
    19   17   19       1
    20   19   20       1
    21   19   21       1
    22   21   22       1
    23   22   23       1
    24   22   32       1
    25   23   24       2
    26   24   25       1
    27   25   26       1
    28   25   32       2
    29   26   27       2
    30   26   28       1
    31   28   29       1
    32   29   30       1
    33   29   31       2
    34   31   32       1
    35   30   44       1
    36   30   43       1
    37   28   42       1
    38   23   41       1
    39   14   33       1
    40   14   34       1
    41   15   35       1
    42   17   36       1
    43   18   37       1
    44   19   38       1
    45   20   39       1
    46   21   40       1
@<TRIPOS>SUBSTRUCTURE
     1 GTP500      1 GROUP             4 B     GTP     0 **** GTP B 500
