@<TRIPOS>MOLECULE
1sqf_SAM_1_ligand
   50    52     1     0     0
SMALL
NO_CHARGES


@<TRIPOS>ATOM
     1 N            4.8670    -1.7580    26.2080 N.4          1 SAM430   1.0000
     2 CA           3.6960    -0.9440    26.4750 C.3          1 SAM430   0.0000
     3 C            2.6230    -1.5670    27.4240 C.2          1 SAM430   0.0000
     4 O            1.8740    -0.6410    27.8890 O.co2        1 SAM430   0.0000
     5 OXT          2.8150    -2.9290    27.2500 O.co2        1 SAM430  -1.0000
     6 CB           3.0800    -0.4730    25.1430 C.3          1 SAM430   0.0000
     7 CG           4.0970     0.3780    24.3350 C.3          1 SAM430   0.0000
     8 SD           3.7600     0.8570    22.5960 S.3          1 SAM430   1.0000
     9 CE           3.4010    -0.6870    21.7020 C.3          1 SAM430   0.0000
    10 C5'          5.3560     1.3570    21.9120 C.3          1 SAM430   0.0000
    11 C4'          5.9540     2.5350    22.6970 C.3          1 SAM430   0.0000
    12 O4'          7.1770     2.7900    22.0550 O.3          1 SAM430   0.0000
    13 C3'          5.2730     3.9070    22.7950 C.3          1 SAM430   0.0000
    14 O3'          5.1090     4.2690    24.1450 O.3          1 SAM430   0.0000
    15 C2'          6.3220     4.8590    22.1920 C.3          1 SAM430   0.0000
    16 O2'          6.4470     6.0860    22.8410 O.3          1 SAM430   0.0000
    17 C1'          7.6100     4.0670    22.3480 C.3          1 SAM430   0.0000
    18 N9           8.6390     4.3310    21.3440 N.pl3        1 SAM430   0.0000
    19 C8           8.4440     4.7520    20.0360 C.2          1 SAM430   0.0000
    20 N7           9.6610     4.8700    19.4910 N.2          1 SAM430   0.0000
    21 C5          10.6280     4.5270    20.3510 C.ar         1 SAM430   0.0000
    22 C6          12.0430     4.4680    20.2940 C.ar         1 SAM430   0.0000
    23 N6          12.7910     4.7320    19.2260 N.pl3        1 SAM430   0.0000
    24 N1          12.7160     4.0810    21.4030 N.ar         1 SAM430   0.0000
    25 C2          12.0650     3.7360    22.5560 C.ar         1 SAM430   0.0000
    26 N3          10.7110     3.8070    22.6010 N.ar         1 SAM430   0.0000
    27 C4           9.9830     4.1880    21.5330 C.ar         1 SAM430   0.0000
    28 H1           4.7005    -2.3276    25.4031 H            1 SAM430   0.0000
    29 H2           5.6541    -1.1646    26.0394 H            1 SAM430   0.0000
    30 HA           4.0287    -0.1203    26.9342 H            1 SAM430   0.0000
    31 HB1          2.2689     0.0798    25.3343 H            1 SAM430   0.0000
    32 HB2          2.8186    -1.2723    24.6020 H            1 SAM430   0.0000
    33 HG1          4.9546    -0.1363    24.3269 H            1 SAM430   0.0000
    34 HG2          4.2235     1.2290    24.8446 H            1 SAM430   0.0000
    35 HE1          3.2092    -0.4798    20.7427 H            1 SAM430   0.0000
    36 HE2          4.1913    -1.2971    21.7597 H            1 SAM430   0.0000
    37 HE3          2.6053    -1.1325    22.1124 H            1 SAM430   0.0000
    38 H5'1         5.2306     1.6309    20.9584 H            1 SAM430   0.0000
    39 H5'2         5.9867     0.5822    21.9561 H            1 SAM430   0.0000
    40 H4'          6.1513     2.2202    23.6254 H            1 SAM430   0.0000
    41 H3'          4.4092     3.9337    22.2919 H            1 SAM430   0.0000
    42 H15          6.0038     4.3139    24.5891 H            1 SAM430   0.0000
    43 H2'          6.1292     5.0061    21.2218 H            1 SAM430   0.0000
    44 H17          7.1353     6.0128    23.5627 H            1 SAM430   0.0000
    45 H1'          7.9740     4.1308    23.2772 H            1 SAM430   0.0000
    46 H19          7.5677     4.9317    19.5890 H            1 SAM430   0.0000
    47 H20         13.7869     4.6627    19.2836 H            1 SAM430   0.0000
    48 H21         12.3573     4.9998    18.3656 H            1 SAM430   0.0000
    49 H22         12.5820     3.4346    23.3572 H            1 SAM430   0.0000
    50 H23          5.0535    -2.3428    26.9974 H            1 SAM430   0.0000
@<TRIPOS>BOND
     1    1    2       1
     2    2    3       1
     3    2    6       1
     4    3    4      ar
     5    3    5      ar
     6    6    7       1
     7    7    8       1
     8    8    9       1
     9    8   10       1
    10   10   11       1
    11   11   12       1
    12   11   13       1
    13   12   17       1
    14   13   14       1
    15   13   15       1
    16   15   16       1
    17   15   17       1
    18   17   18       1
    19   18   19       1
    20   18   27       1
    21   19   20       2
    22   20   21       1
    23   21   22      ar
    24   21   27      ar
    25   22   23       1
    26   22   24      ar
    27   24   25      ar
    28   25   26      ar
    29   26   27      ar
    30    1   28       1
    31    1   29       1
    32    2   30       1
    33    1   50       1
    34    6   31       1
    35    6   32       1
    36    7   33       1
    37    7   34       1
    38    9   35       1
    39    9   36       1
    40    9   37       1
    41   10   38       1
    42   10   39       1
    43   11   40       1
    44   13   41       1
    45   14   42       1
    46   15   43       1
    47   16   44       1
    48   17   45       1
    49   19   46       1
    50   23   47       1
    51   23   48       1
    52   25   49       1
@<TRIPOS>SUBSTRUCTURE
     1 SAM430      1 GROUP             4 A     SAM     0 **** SAM A 430
