@<TRIPOS>MOLECULE
5cxv_0HK_1_ligand
   48    52     1     0     0
SMALL
USER_CHARGES


@<TRIPOS>ATOM
     1 C28        -13.8040   -13.9460    38.7030 C.2          1 0HK501   0.0000
     2 O29        -14.4130   -13.5310    39.6480 O.2          1 0HK501   0.0000
     3 C31        -13.6250   -15.8790    36.9590 C.2          1 0HK501   0.0000
     4 C32        -12.4500   -16.0940    39.0970 C.2          1 0HK501   0.0000
     5 C34        -13.4410   -15.0750    35.8480 C.2          1 0HK501   0.0000
     6 C35        -13.4690   -15.8000    34.6470 C.2          1 0HK501   0.0000
     7 C36        -13.6660   -17.1140    34.8410 C.2          1 0HK501   0.0000
     8 C41        -11.1800   -16.3500    38.5340 C.2          1 0HK501   0.0000
     9 C42        -10.2740   -16.8910    39.4710 C.2          1 0HK501   0.0000
    10 C43        -10.8220   -17.0460    40.6910 C.2          1 0HK501   0.0000
    11 O10         -8.4780   -13.1130    38.7450 O.3          1 0HK501   0.0000
    12 O11        -12.6360   -13.4490    38.2790 O.3          1 0HK501   0.0000
    13 O33        -14.8450   -16.0300    39.0170 O.3          1 0HK501   0.0000
    14 S37        -13.8210   -17.5110    36.4820 S.3          1 0HK501   0.0000
    15 S44        -12.4600   -16.5430    40.7550 S.3          1 0HK501   0.0000
    16 C1         -10.3040    -9.3600    38.4330 C.3          1 0HK501   0.0000
    17 C3         -10.0420   -11.5930    37.4470 C.3          1 0HK501   0.0000
    18 C4         -11.5600   -11.6400    37.1450 C.3          1 0HK501   0.0000
    19 C5         -12.4200   -12.0040    38.3650 C.3          1 0HK501   0.0000
    20 C6         -11.8180   -11.7030    39.7450 C.3          1 0HK501   0.0000
    21 C7         -10.2840   -11.6350    39.7430 C.3          1 0HK501   0.0000
    22 C8          -9.7860   -13.0170    39.3400 C.3          1 0HK501   0.0000
    23 C9          -9.6360   -12.9930    37.8990 C.3          1 0HK501   0.0000
    24 C12         -8.2400   -10.4060    38.6490 C.3          1 0HK501   0.0000
    25 C30        -13.6780   -15.4730    38.4310 C.3          1 0HK501   0.0000
    26 N2          -9.7070   -10.7460    38.5310 N.4          1 0HK501   1.0000
    27 H1         -13.3032   -14.0857    35.8958 H            1 0HK501   0.0000
    28 H2         -13.3547   -15.3836    33.7450 H            1 0HK501   0.0000
    29 H3         -13.7157   -17.7838    34.1001 H            1 0HK501   0.0000
    30 H4         -10.9488   -16.1682    37.5782 H            1 0HK501   0.0000
    31 H5          -9.3285   -17.1328    39.2527 H            1 0HK501   0.0000
    32 H6         -10.3261   -17.4155    41.4769 H            1 0HK501   0.0000
    33 H7         -15.5881   -15.3619    38.9797 H            1 0HK501   0.0000
    34 H8         -10.0266    -8.8206    39.2280 H            1 0HK501   0.0000
    35 H9          -9.9788    -8.9152    37.5985 H            1 0HK501   0.0000
    36 H10        -11.3014    -9.4277    38.4077 H            1 0HK501   0.0000
    37 H11         -9.5318   -11.3295    36.6283 H            1 0HK501   0.0000
    38 H12        -11.7192   -12.3222    36.4314 H            1 0HK501   0.0000
    39 H13        -11.8445   -10.7399    36.8151 H            1 0HK501   0.0000
    40 H14        -13.3025   -11.5399    38.2888 H            1 0HK501   0.0000
    41 H15        -12.1020   -12.4232    40.3780 H            1 0HK501   0.0000
    42 H16        -12.1733   -10.8230    40.0601 H            1 0HK501   0.0000
    43 H17         -9.9189   -11.3467    40.6282 H            1 0HK501   0.0000
    44 H18        -10.1840   -13.8246    39.7753 H            1 0HK501   0.0000
    45 H19         -9.9336   -13.7838    37.3642 H            1 0HK501   0.0000
    46 H20         -7.7074   -11.2491    38.7235 H            1 0HK501   0.0000
    47 H21         -7.9491    -9.8986    37.8379 H            1 0HK501   0.0000
    48 H22         -8.0923    -9.8453    39.4637 H            1 0HK501   0.0000
@<TRIPOS>BOND
     1    1    2       2
     2    1   12       1
     3    1   25       1
     4    3    5       2
     5    3   14       1
     6    3   25       1
     7    4    8       2
     8    4   15       1
     9    4   25       1
    10    5    6       1
    11    6    7       2
    12    7   14       1
    13    8    9       1
    14    9   10       2
    15   10   15       1
    16   11   22       1
    17   11   23       1
    18   12   19       1
    19   13   25       1
    20   16   26       1
    21   17   18       1
    22   17   23       1
    23   17   26       1
    24   18   19       1
    25   19   20       1
    26   20   21       1
    27   21   22       1
    28   21   26       1
    29   22   23       1
    30   24   26       1
    31    5   27       1
    32    6   28       1
    33    7   29       1
    34    8   30       1
    35    9   31       1
    36   10   32       1
    37   13   33       1
    38   16   34       1
    39   16   35       1
    40   16   36       1
    41   17   37       1
    42   18   38       1
    43   18   39       1
    44   19   40       1
    45   20   41       1
    46   20   42       1
    47   21   43       1
    48   22   44       1
    49   23   45       1
    50   24   46       1
    51   24   47       1
    52   24   48       1
@<TRIPOS>SUBSTRUCTURE
     1 0HK501      1 GROUP             4 A     0HK     0 **** 0HK A 501
