@<TRIPOS>MOLECULE
1jhv_PCR_1_ligand
   16    16     1     0     0
SMALL
NO_CHARGES


@<TRIPOS>ATOM
     1 CB          60.7740    44.9120    13.2130 C.3          1 PCR990   0.0000
     2 CG          59.6340    43.9690    13.5240 C.ar         1 PCR990   0.0000
     3 CD1         59.3320    42.9080    12.6620 C.ar         1 PCR990   0.0000
     4 CE1         58.2580    42.0540    12.9620 C.ar         1 PCR990   0.0000
     5 CD2         58.8810    44.1580    14.6810 C.ar         1 PCR990   0.0000
     6 CE2         57.8040    43.3060    14.9760 C.ar         1 PCR990   0.0000
     7 CZ          57.4930    42.2480    14.1230 C.ar         1 PCR990   0.0000
     8 OH          56.4510    41.4140    14.4330 O.3          1 PCR990   0.0000
     9 HB1         60.8415    45.6024    13.9333 H            1 PCR990   0.0000
    10 HB2         61.6294    44.3963    13.1644 H            1 PCR990   0.0000
    11 HB3         60.6052    45.3611    12.3356 H            1 PCR990   0.0000
    12 HD1         59.8778    42.7590    11.8374 H            1 PCR990   0.0000
    13 HE1         58.0362    41.3007    12.3428 H            1 PCR990   0.0000
    14 HD2         59.1088    44.9051    15.3054 H            1 PCR990   0.0000
    15 HE2         57.2587    43.4587    15.8002 H            1 PCR990   0.0000
    16 HH          55.9175    41.5682    15.2646 H            1 PCR990   0.0000
@<TRIPOS>BOND
     1    1    2       1
     2    2    3      ar
     3    2    5      ar
     4    3    4      ar
     5    4    7      ar
     6    5    6      ar
     7    6    7      ar
     8    7    8       1
     9    1    9       1
    10    1   10       1
    11    1   11       1
    12    3   12       1
    13    4   13       1
    14    5   14       1
    15    6   15       1
    16    8   16       1
@<TRIPOS>SUBSTRUCTURE
     1 PCR990      1 GROUP             4 A     PCR     0 **** PCR A 990
