@<TRIPOS>MOLECULE
3sdk_P3N_1_ligand
   81    84     1     0     0
SMALL
NO_CHARGES


@<TRIPOS>ATOM
     1 C32         13.0760  -136.8700    24.3700 C.2          1 P3N302   0.0000
     2 C28         13.1250  -135.9940    25.3790 C.2          1 P3N302   0.0000
     3 C35         14.0100  -136.1210    26.6260 C.3          1 P3N302   0.0000
     4 O29         12.2610  -134.9570    25.1400 O.2          1 P3N302   0.0000
     5 N30         11.6600  -135.2440    23.8890 N.2          1 P3N302   0.0000
     6 C31         12.1910  -136.3950    23.4770 C.2          1 P3N302   0.0000
     7 C33         11.8110  -137.0920    22.1660 C.2          1 P3N302   0.0000
     8 O34         12.3840  -138.1270    21.8220 O.2          1 P3N302   0.0000
     9 C5          11.1310  -136.7100    18.9990 C.2          1 P3N302   0.0000
    10 C41          6.3280  -137.1890    25.2450 C.3          1 P3N302   0.0000
    11 C40          6.9910  -138.3470    24.5060 C.3          1 P3N302   0.0000
    12 C42          6.0640  -139.5660    24.5640 C.3          1 P3N302   0.0000
    13 C43          8.3390  -138.7150    25.1330 C.3          1 P3N302   0.0000
    14 C37          7.1970  -137.9570    23.0210 C.2          1 P3N302   0.0000
    15 N36          8.2400  -137.2990    22.4940 N.2          1 P3N302   0.0000
    16 N38          6.3240  -138.2580    22.0630 N.2          1 P3N302   0.0000
    17 O39          6.8480  -137.7570    20.8500 O.2          1 P3N302   0.0000
    18 C1           8.0270  -137.1700    21.1680 C.2          1 P3N302   0.0000
    19 C2           8.8840  -136.5190    20.0830 C.3          1 P3N302   0.0000
    20 C3          10.2900  -137.0530    20.2220 C.3          1 P3N302   0.0000
    21 N4          10.8390  -136.5020    21.4720 N.am         1 P3N302   0.0000
    22 O6          11.8210  -135.6970    18.9660 O.2          1 P3N302   0.0000
    23 N8          11.0660  -137.6010    18.0110 N.am         1 P3N302   0.0000
    24 C7          11.8210  -137.4640    16.7520 C.3          1 P3N302   0.0000
    25 C10         10.8530  -137.2000    15.6110 C.2          1 P3N302   0.0000
    26 O14          9.7240  -137.6750    15.6180 O.2          1 P3N302   0.0000
    27 C9          12.5500  -138.7610    16.4370 C.3          1 P3N302   0.0000
    28 C12         13.3990  -139.2260    17.6010 C.3          1 P3N302   0.0000
    29 C13         14.6450  -138.3620    17.7330 C.ar         1 P3N302   0.0000
    30 C23         15.5120  -138.2090    16.6510 C.ar         1 P3N302   0.0000
    31 C27         14.9140  -137.7230    18.9370 C.ar         1 P3N302   0.0000
    32 C24         16.6620  -137.4260    16.7690 C.ar         1 P3N302   0.0000
    33 C26         16.0590  -136.9300    19.0580 C.ar         1 P3N302   0.0000
    34 C25         16.9330  -136.7860    17.9740 C.ar         1 P3N302   0.0000
    35 C15         10.5260  -136.1500    13.4480 C.3          1 P3N302   0.0000
    36 C16          9.8040  -134.8120    13.6220 C.ar         1 P3N302   0.0000
    37 C17          8.6620  -134.7120    14.4080 C.ar         1 P3N302   0.0000
    38 C19          8.5310  -132.3620    13.8740 C.ar         1 P3N302   0.0000
    39 C21         10.2990  -133.6930    12.9620 C.ar         1 P3N302   0.0000
    40 N11         11.3340  -136.4650    14.6210 N.am         1 P3N302   0.0000
    41 C18          8.0310  -133.4780    14.5350 C.ar         1 P3N302   0.0000
    42 C22          7.8450  -131.0070    14.0050 C.3          1 P3N302   0.0000
    43 C20          9.6660  -132.4640    13.0910 C.ar         1 P3N302   0.0000
    44 H1          13.5993  -137.7188    24.2941 H            1 P3N302   0.0000
    45 H2          13.8573  -135.3346    27.2246 H            1 P3N302   0.0000
    46 H3          13.7784  -136.9620    27.1149 H            1 P3N302   0.0000
    47 H4          14.9711  -136.1491    26.3512 H            1 P3N302   0.0000
    48 H5           6.9253  -136.3876    25.2131 H            1 P3N302   0.0000
    49 H6           5.4548  -136.9715    24.8088 H            1 P3N302   0.0000
    50 H7           6.1692  -137.4487    26.1975 H            1 P3N302   0.0000
    51 H8           6.4897  -140.3317    24.0819 H            1 P3N302   0.0000
    52 H9           5.9059  -139.8194    25.5183 H            1 P3N302   0.0000
    53 H10          5.1915  -139.3422    24.1296 H            1 P3N302   0.0000
    54 H11          8.7458  -139.4752    24.6264 H            1 P3N302   0.0000
    55 H12          8.9506  -137.9247    25.0962 H            1 P3N302   0.0000
    56 H13          8.2007  -138.9855    26.0858 H            1 P3N302   0.0000
    57 H14          8.8843  -135.5259    20.2001 H            1 P3N302   0.0000
    58 H15          8.5210  -136.7481    19.1798 H            1 P3N302   0.0000
    59 H16         10.2445  -138.0484    20.3069 H            1 P3N302   0.0000
    60 H17         10.4635  -135.6419    21.8173 H            1 P3N302   0.0000
    61 H18         10.4773  -138.4007    18.1287 H            1 P3N302   0.0000
    62 H19         12.4763  -136.7122    16.8259 H            1 P3N302   0.0000
    63 H20         13.1407  -138.6157    15.6433 H            1 P3N302   0.0000
    64 H21         11.8754  -139.4683    16.2255 H            1 P3N302   0.0000
    65 H22         13.6722  -140.1760    17.4499 H            1 P3N302   0.0000
    66 H23         12.8644  -139.1629    18.4437 H            1 P3N302   0.0000
    67 H24         15.3083  -138.6637    15.7840 H            1 P3N302   0.0000
    68 H25         14.2921  -137.8297    19.7128 H            1 P3N302   0.0000
    69 H26         17.2856  -137.3261    15.9937 H            1 P3N302   0.0000
    70 H27         16.2542  -136.4644    19.9212 H            1 P3N302   0.0000
    71 H28         17.7536  -136.2220    18.0661 H            1 P3N302   0.0000
    72 H29         11.1206  -136.0987    12.6456 H            1 P3N302   0.0000
    73 H30          9.8477  -136.8726    13.3146 H            1 P3N302   0.0000
    74 H31          8.2981  -135.5170    14.8766 H            1 P3N302   0.0000
    75 H32         11.1159  -133.7738    12.3909 H            1 P3N302   0.0000
    76 H33         12.2703  -136.1186    14.6783 H            1 P3N302   0.0000
    77 H34          7.2136  -133.3937    15.1048 H            1 P3N302   0.0000
    78 H35          8.3416  -130.3283    13.4640 H            1 P3N302   0.0000
    79 H36          6.9047  -131.0758    13.6717 H            1 P3N302   0.0000
    80 H37          7.8387  -130.7280    14.9653 H            1 P3N302   0.0000
    81 H38         10.0282  -131.6589    12.6213 H            1 P3N302   0.0000
@<TRIPOS>BOND
     1    1    2       2
     2    1    6       1
     3    2    3       1
     4    2    4       1
     5    4    5       1
     6    5    6       2
     7    6    7       1
     8    7    8       2
     9    7   21      am
    10    9   20       1
    11    9   22       2
    12    9   23      am
    13   10   11       1
    14   11   12       1
    15   11   13       1
    16   11   14       1
    17   14   15       1
    18   14   16       2
    19   15   18       2
    20   16   17       1
    21   17   18       1
    22   18   19       1
    23   19   20       1
    24   20   21       1
    25   23   24       1
    26   24   25       1
    27   24   27       1
    28   25   26       2
    29   25   40      am
    30   27   28       1
    31   28   29       1
    32   29   30      ar
    33   29   31      ar
    34   30   32      ar
    35   31   33      ar
    36   32   34      ar
    37   33   34      ar
    38   35   36       1
    39   35   40       1
    40   36   37      ar
    41   36   39      ar
    42   37   41      ar
    43   38   41      ar
    44   38   42       1
    45   38   43      ar
    46   39   43      ar
    47    1   44       1
    48    3   45       1
    49    3   46       1
    50    3   47       1
    51   10   48       1
    52   10   49       1
    53   10   50       1
    54   12   51       1
    55   12   52       1
    56   12   53       1
    57   13   54       1
    58   13   55       1
    59   13   56       1
    60   19   57       1
    61   19   58       1
    62   20   59       1
    63   21   60       1
    64   23   61       1
    65   24   62       1
    66   27   63       1
    67   27   64       1
    68   28   65       1
    69   28   66       1
    70   30   67       1
    71   31   68       1
    72   32   69       1
    73   33   70       1
    74   34   71       1
    75   35   72       1
    76   35   73       1
    77   37   74       1
    78   39   75       1
    79   40   76       1
    80   41   77       1
    81   42   78       1
    82   42   79       1
    83   42   80       1
    84   43   81       1
@<TRIPOS>SUBSTRUCTURE
     1 P3N302      1 GROUP             4 K     P3N     0 **** P3N K 302
