@<TRIPOS>MOLECULE
4wrk_DUP_6_ligand
   40    41     1     0     0
SMALL
NO_CHARGES


@<TRIPOS>ATOM
     1 O4         -12.8300    -4.4000   -59.3370 O.2          1 DUP201   0.0000
     2 C4         -12.0000    -4.8730   -60.1010 C.2          1 DUP201   0.0000
     3 C5         -12.1840    -4.7580   -61.4330 C.2          1 DUP201   0.0000
     4 C6         -11.2460    -5.2880   -62.3040 C.2          1 DUP201   0.0000
     5 N3         -10.8920    -5.5080   -59.6090 N.pl3        1 DUP201   0.0000
     6 C2          -9.9620    -6.0390   -60.4710 C.2          1 DUP201   0.0000
     7 O2          -8.9830    -6.6020   -60.0290 O.2          1 DUP201   0.0000
     8 N1         -10.1490    -5.9120   -61.8290 N.pl3        1 DUP201   0.0000
     9 C1'         -9.2320    -6.4690   -62.7300 C.3          1 DUP201   0.0000
    10 C2'         -9.9010    -7.3120   -63.4770 C.3          1 DUP201   0.0000
    11 C3'         -9.9020    -6.7890   -64.9240 C.3          1 DUP201   0.0000
    12 O3'         -9.5310    -7.7730   -65.7440 O.3          1 DUP201   0.0000
    13 O4'         -8.6100    -5.3080   -63.7100 O.3          1 DUP201   0.0000
    14 C4'         -8.8330    -5.6410   -64.9420 C.3          1 DUP201   0.0000
    15 C5'         -9.4320    -4.4320   -65.7060 C.3          1 DUP201   0.0000
    16 O5'        -10.8330    -4.3950   -65.4110 O.3          1 DUP201   0.0000
    17 PA         -11.7590    -3.3310   -66.1370 P.3          1 DUP201   0.0000
    18 O1A        -11.9160    -3.7180   -67.5850 O.co2        1 DUP201   0.0000
    19 O2A        -13.1360    -3.3580   -65.4410 O.co2        1 DUP201  -1.0000
    20 N3A        -11.0900    -1.8060   -65.9150 N.3          1 DUP201   0.0000
    21 PB         -10.6910    -0.7010   -67.1110 P.3          1 DUP201   0.0000
    22 O1B        -11.5940    -0.8730   -68.3070 O.co2        1 DUP201   0.0000
    23 O2B        -10.8380     0.6560   -66.5360 O.co2        1 DUP201  -1.0000
    24 O3B         -9.1910    -0.8770   -67.5290 O.3          1 DUP201   0.0000
    25 PG          -8.6740    -1.7430   -68.7720 P.3          1 DUP201   0.0000
    26 O2G         -8.8640    -0.9670   -70.0640 O.co2        1 DUP201   0.0000
    27 O1G         -7.2180    -2.0500   -68.5490 O.co2        1 DUP201  -1.0000
    28 O3G         -9.5090    -3.0210   -68.8590 O.co2        1 DUP201  -1.0000
    29 H1         -12.9938    -4.2923   -61.7897 H            1 DUP201   0.0000
    30 H2         -11.3833    -5.2073   -63.2912 H            1 DUP201   0.0000
    31 H3         -10.7587    -5.5859   -58.6210 H            1 DUP201   0.0000
    32 H1'         -8.5004    -6.9411   -62.2382 H            1 DUP201   0.0000
    33 H2'1       -10.8412    -7.3848   -63.1441 H            1 DUP201   0.0000
    34 H2'2        -9.4650    -8.2114   -63.4438 H            1 DUP201   0.0000
    35 H3'        -10.8044    -6.4385   -65.1747 H            1 DUP201   0.0000
    36 H8          -9.9680    -7.6473   -66.6346 H            1 DUP201   0.0000
    37 H4'         -7.9899    -5.9520   -65.3807 H            1 DUP201   0.0000
    38 H5'1        -9.2921    -4.5452   -66.6897 H            1 DUP201   0.0000
    39 H5'2        -8.9957    -3.5849   -65.4025 H            1 DUP201   0.0000
    40 H3A        -10.2378    -1.9674   -65.4174 H            1 DUP201   0.0000
@<TRIPOS>BOND
     1    1    2       2
     2    2    3       1
     3    2    5       1
     4    3    4       2
     5    4    8       1
     6    5    6       1
     7    6    7       2
     8    6    8       1
     9    8    9       1
    10    9   10       1
    11    9   13       1
    12   10   11       1
    13   11   12       1
    14   11   14       1
    15   13   14       1
    16   14   15       1
    17   15   16       1
    18   16   17       1
    19   17   18      ar
    20   17   19      ar
    21   17   20       1
    22   20   21       1
    23   21   22      ar
    24   21   23      ar
    25   21   24       1
    26   24   25       1
    27   25   26      ar
    28   25   27      ar
    29   25   28      ar
    30    3   29       1
    31    4   30       1
    32    5   31       1
    33    9   32       1
    34   10   33       1
    35   10   34       1
    36   11   35       1
    37   12   36       1
    38   14   37       1
    39   15   38       1
    40   15   39       1
    41   20   40       1
@<TRIPOS>SUBSTRUCTURE
     1 DUP201      1 GROUP             4 F     DUP     0 **** DUP F 201
