@<TRIPOS>MOLECULE
4n6p_JMS_1_ligand
   28    29     1     0     0
SMALL
NO_CHARGES


@<TRIPOS>ATOM
     1 OXT          5.0400    12.5530    13.1070 O.co2        1 JMS713   0.0000
     2 C7           4.5670    11.6640    12.1890 C.2          1 JMS713   0.0000
     3 OH           4.3030    10.4890    12.4400 O.co2        1 JMS713  -1.0000
     4 C1           4.4640    12.1480    10.7670 C.ar         1 JMS713   0.0000
     5 C6           5.0460    13.3960    10.5170 C.ar         1 JMS713   0.0000
     6 C5           5.0360    13.9500     9.2530 C.ar         1 JMS713   0.0000
     7 C4           4.4600    13.2620     8.1740 C.ar         1 JMS713   0.0000
     8 C3           3.8880    12.0240     8.4100 C.ar         1 JMS713   0.0000
     9 C2           3.8300    11.4410     9.6850 C.ar         1 JMS713   0.0000
    10 N            3.3140    10.0870     9.7740 N.pl3        1 JMS713   0.0000
    11 C1B          2.0380     9.7350     9.4990 C.ar         1 JMS713   0.0000
    12 C2B          1.6430    10.2430     8.2240 C.ar         1 JMS713   0.0000
    13 CL1          2.8420    10.6970     7.5900 Cl           1 JMS713   0.0000
    14 C3B          0.3650     9.7510     7.9500 C.ar         1 JMS713   0.0000
    15 C7B         -0.5360     9.9440     6.7300 C.3          1 JMS713   0.0000
    16 C4B         -0.4650     9.0940     8.9050 C.ar         1 JMS713   0.0000
    17 C5B         -0.0370     8.7660    10.1880 C.ar         1 JMS713   0.0000
    18 C6B          1.2720     9.1080    10.4910 C.ar         1 JMS713   0.0000
    19 CL2          1.9610     8.7470    12.1300 Cl           1 JMS713   0.0000
    20 H1           5.4772    13.8957    11.2683 H            1 JMS713   0.0000
    21 H2           5.4435    14.8511     9.1045 H            1 JMS713   0.0000
    22 H3           4.4628    13.6573     7.2554 H            1 JMS713   0.0000
    23 H4           3.9454     9.3655    10.0581 H            1 JMS713   0.0000
    24 H7B1        -1.3925     9.4462     6.8661 H            1 JMS713   0.0000
    25 H7B2        -0.7316    10.9174     6.6107 H            1 JMS713   0.0000
    26 H7B3        -0.0732     9.5947     5.9153 H            1 JMS713   0.0000
    27 H4B         -1.3998     8.8574     8.6402 H            1 JMS713   0.0000
    28 H5B         -0.6352     8.3128    10.8489 H            1 JMS713   0.0000
@<TRIPOS>BOND
     1    1    2      ar
     2    2    3      ar
     3    2    4       1
     4    4    5      ar
     5    4    9      ar
     6    5    6      ar
     7    6    7      ar
     8    7    8      ar
     9    8    9      ar
    10    9   10       1
    11   10   11       1
    12   11   12      ar
    13   11   18      ar
    14   12   13       1
    15   12   14      ar
    16   14   15       1
    17   14   16      ar
    18   16   17      ar
    19   17   18      ar
    20   18   19       1
    21   17   28       1
    22    5   20       1
    23    6   21       1
    24    7   22       1
    25   10   23       1
    26   15   24       1
    27   15   25       1
    28   15   26       1
    29   16   27       1
@<TRIPOS>SUBSTRUCTURE
     1 JMS713      1 GROUP             4 A     JMS     0 **** JMS A 713
