@<TRIPOS>MOLECULE
4qx5_CMP_1_ligand
   34    37     1     0     0
SMALL
NO_CHARGES


@<TRIPOS>ATOM
     1 P          -10.7050    -1.3330   -17.8140 P.3          1 CMP401   0.0000
     2 O1P        -10.6650    -2.4970   -18.7610 O.2          1 CMP401   0.0000
     3 O2P        -10.7930     0.0920   -18.3060 O.3          1 CMP401   0.0000
     4 O5'        -11.9930    -1.6330   -16.8970 O.3          1 CMP401   0.0000
     5 C5'        -12.0200    -2.7340   -15.9870 C.3          1 CMP401   0.0000
     6 C4'        -10.7280    -2.7260   -15.2400 C.3          1 CMP401   0.0000
     7 O4'        -10.5050    -3.8950   -14.4250 O.3          1 CMP401   0.0000
     8 C3'         -9.5240    -2.7070   -16.1380 C.3          1 CMP401   0.0000
     9 O3'         -9.4350    -1.4830   -16.8310 O.3          1 CMP401   0.0000
    10 C2'         -8.4170    -3.0080   -15.1560 C.3          1 CMP401   0.0000
    11 O2'         -8.1660    -1.8660   -14.3570 O.3          1 CMP401   0.0000
    12 C1'         -9.1100    -4.0720   -14.2890 C.3          1 CMP401   0.0000
    13 N9          -8.7820    -5.4350   -14.7240 N.pl3        1 CMP401   0.0000
    14 C8          -8.9670    -6.0470   -15.9130 C.2          1 CMP401   0.0000
    15 N7          -8.5200    -7.3340   -15.8580 N.2          1 CMP401   0.0000
    16 C5          -8.0630    -7.5340   -14.6020 C.ar         1 CMP401   0.0000
    17 C6          -7.4570    -8.6290   -13.8140 C.ar         1 CMP401   0.0000
    18 N6          -7.2230    -9.8420   -14.3550 N.pl3        1 CMP401   0.0000
    19 N1          -7.1360    -8.3870   -12.5320 N.ar         1 CMP401   0.0000
    20 C2          -7.3570    -7.1940   -11.9760 C.ar         1 CMP401   0.0000
    21 N3          -7.8930    -6.1600   -12.6010 N.ar         1 CMP401   0.0000
    22 C4          -8.2530    -6.2790   -13.8830 C.ar         1 CMP401   0.0000
    23 H5'1       -12.1182    -3.5920   -16.4911 H            1 CMP401   0.0000
    24 H5'2       -12.7840    -2.6324   -15.3499 H            1 CMP401   0.0000
    25 H4'        -10.7025    -1.9168   -14.6530 H            1 CMP401   0.0000
    26 H3'         -9.5925    -3.4555   -16.7976 H            1 CMP401   0.0000
    27 H2'         -7.5914    -3.3539   -15.6019 H            1 CMP401   0.0000
    28 H6          -7.4694    -1.2986   -14.7961 H            1 CMP401   0.0000
    29 H1'         -8.8465    -3.9510   -13.3320 H            1 CMP401   0.0000
    30 H8          -9.3739    -5.6176   -16.7193 H            1 CMP401   0.0000
    31 H9          -6.8121   -10.5658   -13.8007 H            1 CMP401   0.0000
    32 H10         -7.4604   -10.0176   -15.3104 H            1 CMP401   0.0000
    33 H11         -7.0985    -7.0737   -11.0175 H            1 CMP401   0.0000
    34 H2P         -9.9950     0.6042   -17.9883 H            1 CMP401   0.0000
@<TRIPOS>BOND
     1    1    2       2
     2    1    3       1
     3    1    4       1
     4    1    9       1
     5    4    5       1
     6    5    6       1
     7    6    7       1
     8    6    8       1
     9    7   12       1
    10    8    9       1
    11    8   10       1
    12   10   11       1
    13   10   12       1
    14   12   13       1
    15   13   14       1
    16   13   22       1
    17   14   15       2
    18   15   16       1
    19   16   17      ar
    20   16   22      ar
    21   17   18       1
    22   17   19      ar
    23   19   20      ar
    24   20   21      ar
    25   21   22      ar
    26   20   33       1
    27    5   23       1
    28    5   24       1
    29    6   25       1
    30    8   26       1
    31   10   27       1
    32   11   28       1
    33   12   29       1
    34   14   30       1
    35   18   31       1
    36   18   32       1
    37    3   34       1
@<TRIPOS>SUBSTRUCTURE
     1 CMP401      1 GROUP             4 A     CMP     0 **** CMP A 401
