@<TRIPOS>MOLECULE
2zdg_ADP_2_ligand
   39    41     1     0     0
SMALL
NO_CHARGES


@<TRIPOS>ATOM
     1 PB          24.8860    63.7600    29.7750 P.3          1 ADP402   0.0000
     2 O1B         25.7130    62.9880    28.8280 O.co2        1 ADP402   0.0000
     3 O2B         25.8690    64.7370    30.6220 O.co2        1 ADP402  -1.0000
     4 O3B         24.1190    62.7440    30.7490 O.co2        1 ADP402  -1.0000
     5 PA          23.1880    65.8560    29.7170 P.3          1 ADP402   0.0000
     6 O1A         22.0210    65.4450    30.5320 O.co2        1 ADP402   0.0000
     7 O2A         24.2860    66.5450    30.6730 O.co2        1 ADP402  -1.0000
     8 O3A         23.7990    64.5730    28.9210 O.3          1 ADP402   0.0000
     9 O5'         22.6990    66.9060    28.6080 O.3          1 ADP402   0.0000
    10 C5'         23.8080    67.1330    27.7130 C.3          1 ADP402   0.0000
    11 C4'         24.0040    68.6360    27.5170 C.3          1 ADP402   0.0000
    12 O4'         22.7770    69.2360    27.0120 O.3          1 ADP402   0.0000
    13 C3'         24.3300    69.3300    28.8410 C.3          1 ADP402   0.0000
    14 O3'         25.7370    69.3680    29.0630 O.3          1 ADP402   0.0000
    15 C2'         23.6900    70.7110    28.6870 C.3          1 ADP402   0.0000
    16 O2'         24.6120    71.6820    28.1610 O.3          1 ADP402   0.0000
    17 C1'         22.5100    70.4730    27.7380 C.3          1 ADP402   0.0000
    18 N9          21.2410    70.3780    28.4830 N.pl3        1 ADP402   0.0000
    19 C8          20.5900    69.2350    28.8900 C.2          1 ADP402   0.0000
    20 N7          19.4900    69.5390    29.5180 N.2          1 ADP402   0.0000
    21 C5          19.3570    70.8800    29.5590 C.ar         1 ADP402   0.0000
    22 C6          18.3970    71.7810    30.0890 C.ar         1 ADP402   0.0000
    23 N6          17.2770    71.3110    30.7500 N.pl3        1 ADP402   0.0000
    24 N1          18.5990    73.1080    29.9360 N.ar         1 ADP402   0.0000
    25 C2          19.6810    73.5880    29.3000 C.ar         1 ADP402   0.0000
    26 N3          20.6060    72.7760    28.7880 N.ar         1 ADP402   0.0000
    27 C4          20.4860    71.4390    28.8930 C.ar         1 ADP402   0.0000
    28 H5'1        23.6174    66.7036    26.8302 H            1 ADP402   0.0000
    29 H5'2        24.6386    66.7366    28.1040 H            1 ADP402   0.0000
    30 H4'         24.7459    68.7940    26.8654 H            1 ADP402   0.0000
    31 H3'         23.8875    68.8397    29.5918 H            1 ADP402   0.0000
    32 H5          25.9680    70.1796    29.5996 H            1 ADP402   0.0000
    33 H2'         23.3480    71.0214    29.5739 H            1 ADP402   0.0000
    34 H7          25.3931    71.7690    28.7793 H            1 ADP402   0.0000
    35 H1'         22.4534    71.2303    27.0874 H            1 ADP402   0.0000
    36 H9          20.9155    68.3037    28.7267 H            1 ADP402   0.0000
    37 H10         16.6073    71.9553    31.1193 H            1 ADP402   0.0000
    38 H11         17.1368    70.3269    30.8587 H            1 ADP402   0.0000
    39 H12         19.7950    74.5773    29.2086 H            1 ADP402   0.0000
@<TRIPOS>BOND
     1    1    2      ar
     2    1    3      ar
     3    1    4      ar
     4    1    8       1
     5    5    6      ar
     6    5    7      ar
     7    5    8       1
     8    5    9       1
     9    9   10       1
    10   10   11       1
    11   11   12       1
    12   11   13       1
    13   12   17       1
    14   13   14       1
    15   13   15       1
    16   15   16       1
    17   15   17       1
    18   17   18       1
    19   18   19       1
    20   18   27       1
    21   19   20       2
    22   20   21       1
    23   21   22      ar
    24   21   27      ar
    25   22   23       1
    26   22   24      ar
    27   24   25      ar
    28   25   26      ar
    29   26   27      ar
    30   25   39       1
    31   23   38       1
    32   23   37       1
    33   10   28       1
    34   10   29       1
    35   11   30       1
    36   13   31       1
    37   14   32       1
    38   15   33       1
    39   16   34       1
    40   17   35       1
    41   19   36       1
@<TRIPOS>SUBSTRUCTURE
     1 ADP402      1 GROUP             4 B     ADP     0 **** ADP B 402
