@<TRIPOS>MOLECULE
1zot_EMA_1_ligand
   36    37     1     0     0
SMALL
NO_CHARGES


@<TRIPOS>ATOM
     1 PG          -1.3150    47.5120    72.8610 P.3          1 EMA900   0.0000
     2 O1G         -0.3110    48.4150    72.2220 O.co2        1 EMA900   0.0000
     3 O2G         -2.7110    48.0130    72.8230 O.co2        1 EMA900  -1.0000
     4 O3G         -0.8550    47.0230    74.2310 O.co2        1 EMA900  -1.0000
     5 PB          -2.1260    44.6720    72.0400 P.3          1 EMA900   0.0000
     6 O1B         -1.1180    43.8530    72.8400 O.co2        1 EMA900   0.0000
     7 O2B         -3.4830    44.8840    72.6460 O.co2        1 EMA900  -1.0000
     8 O3B         -1.4080    46.1810    71.8200 O.3          1 EMA900   0.0000
     9 PA          -3.1500    43.2150    69.1340 P.3          1 EMA900   0.0000
    10 O1A         -4.0850    42.0810    69.6510 O.co2        1 EMA900   0.0000
    11 O2A         -3.3740    44.5190    68.7210 O.co2        1 EMA900  -1.0000
    12 O3A         -2.1780    43.8640    70.6000 O.3          1 EMA900   0.0000
    13 C5'         -2.2730    42.5630    68.4160 C.3          1 EMA900   0.0000
    14 O5'         -0.9350    42.6540    67.8190 O.3          1 EMA900   0.0000
    15 C4'         -0.7300    43.9130    67.0410 C.3          1 EMA900   0.0000
    16 C1'         -0.4880    43.6700    65.5350 C.3          1 EMA900   0.0000
    17 N9          -0.4800    42.2500    64.9380 N.pl3        1 EMA900   0.0000
    18 C8          -0.4210    40.9800    65.5090 C.2          1 EMA900   0.0000
    19 N7          -0.4360    39.9700    64.6660 N.2          1 EMA900   0.0000
    20 C5          -0.5150    40.6190    63.4270 C.ar         1 EMA900   0.0000
    21 C6          -0.5770    40.1460    62.0540 C.ar         1 EMA900   0.0000
    22 N6          -0.5640    38.8320    61.7330 N.pl3        1 EMA900   0.0000
    23 N1          -0.6500    41.0760    61.0520 N.ar         1 EMA900   0.0000
    24 C2          -0.6570    42.3800    61.3500 C.ar         1 EMA900   0.0000
    25 N3          -0.6030    42.9480    62.5650 N.ar         1 EMA900   0.0000
    26 C4          -0.5350    41.9970    63.5810 C.ar         1 EMA900   0.0000
    27 H5'1        -2.8198    42.3589    67.6040 H            1 EMA900   0.0000
    28 H5'2        -2.1699    41.7339    68.9655 H            1 EMA900   0.0000
    29 H4'1         0.0634    44.3921    67.4164 H            1 EMA900   0.0000
    30 H4'2        -1.5439    44.4850    67.1432 H            1 EMA900   0.0000
    31 H1'1         0.4047    44.0689    65.3251 H            1 EMA900   0.0000
    32 H1'2        -1.2014    44.1756    65.0498 H            1 EMA900   0.0000
    33 H7          -0.3704    40.8448    66.4985 H            1 EMA900   0.0000
    34 H8          -0.6084    38.5510    60.7743 H            1 EMA900   0.0000
    35 H9          -0.5100    38.1416    62.4544 H            1 EMA900   0.0000
    36 H10         -0.7087    43.0079    60.5734 H            1 EMA900   0.0000
@<TRIPOS>BOND
     1    1    2      ar
     2    1    3      ar
     3    1    4      ar
     4    1    8       1
     5    5    6      ar
     6    5    7      ar
     7    5    8       1
     8    5   12       1
     9    9   10      ar
    10    9   11      ar
    11    9   12       1
    12    9   13       1
    13   13   14       1
    14   14   15       1
    15   15   16       1
    16   16   17       1
    17   17   18       1
    18   17   26       1
    19   18   19       2
    20   19   20       1
    21   20   21      ar
    22   20   26      ar
    23   21   22       1
    24   21   23      ar
    25   23   24      ar
    26   24   25      ar
    27   25   26      ar
    28   24   36       1
    29   22   35       1
    30   22   34       1
    31   18   33       1
    32   13   27       1
    33   13   28       1
    34   15   29       1
    35   15   30       1
    36   16   31       1
    37   16   32       1
@<TRIPOS>SUBSTRUCTURE
     1 EMA900      1 GROUP             4 A     EMA     0 **** EMA A 900
