@<TRIPOS>MOLECULE
1glb_ADP_1_ligand
   39    41     1     0     0
SMALL
NO_CHARGES


@<TRIPOS>ATOM
     1 PB          20.7380    50.6060    11.8580 P.3          1 ADP502   0.0000
     2 O1B         19.6480    49.6800    11.5660 O.co2        1 ADP502   0.0000
     3 O2B         21.8140    50.1640    12.7530 O.co2        1 ADP502  -1.0000
     4 O3B         21.3510    51.0960    10.4560 O.co2        1 ADP502  -1.0000
     5 PA          19.3210    52.2060    13.6760 P.3          1 ADP502   0.0000
     6 O1A         19.5510    51.1720    14.7040 O.co2        1 ADP502   0.0000
     7 O2A         19.8000    53.6660    14.2040 O.co2        1 ADP502  -1.0000
     8 O3A         20.1860    52.0040    12.3510 O.3          1 ADP502   0.0000
     9 O5'         17.7700    52.2090    13.2800 O.3          1 ADP502   0.0000
    10 C5'         17.2760    53.0010    12.1890 C.3          1 ADP502   0.0000
    11 C4'         16.0540    52.3190    11.6430 C.3          1 ADP502   0.0000
    12 O4'         15.0050    52.4780    12.5880 O.3          1 ADP502   0.0000
    13 C3'         15.5960    52.8930    10.3410 C.3          1 ADP502   0.0000
    14 O3'         15.3920    51.7400     9.5130 O.3          1 ADP502   0.0000
    15 C2'         14.3430    53.6900    10.6970 C.3          1 ADP502   0.0000
    16 O2'         13.3210    53.6100     9.7000 O.3          1 ADP502   0.0000
    17 C1'         13.8330    52.9590    11.8970 C.3          1 ADP502   0.0000
    18 N9          13.0520    53.8740    12.7750 N.pl3        1 ADP502   0.0000
    19 C8          13.4440    55.0680    13.3100 C.2          1 ADP502   0.0000
    20 N7          12.5430    55.6290    14.0650 N.2          1 ADP502   0.0000
    21 C5          11.4690    54.7590    14.0230 C.ar         1 ADP502   0.0000
    22 C6          10.2180    54.7890    14.6380 C.ar         1 ADP502   0.0000
    23 N6           9.8170    55.8300    15.3530 N.pl3        1 ADP502   0.0000
    24 N1           9.3870    53.7580    14.4380 N.ar         1 ADP502   0.0000
    25 C2           9.8050    52.7690    13.6680 C.ar         1 ADP502   0.0000
    26 N3          10.9620    52.6190    13.0250 N.ar         1 ADP502   0.0000
    27 C4          11.7720    53.6710    13.2580 C.ar         1 ADP502   0.0000
    28 H5'1        17.9737    53.0709    11.4761 H            1 ADP502   0.0000
    29 H5'2        17.0382    53.9165    12.5135 H            1 ADP502   0.0000
    30 H4'         16.2457    51.3447    11.5243 H            1 ADP502   0.0000
    31 H3'         16.2969    53.4901     9.9508 H            1 ADP502   0.0000
    32 H5          15.0800    52.0303     8.6083 H            1 ADP502   0.0000
    33 H2'         14.5652    54.6401    10.9160 H            1 ADP502   0.0000
    34 H7          13.0473    52.6558     9.5791 H            1 ADP502   0.0000
    35 H1'         13.2630    52.1884    11.6120 H            1 ADP502   0.0000
    36 H9          14.3412    55.4745    13.1377 H            1 ADP502   0.0000
    37 H10          8.9141    55.8235    15.7827 H            1 ADP502   0.0000
    38 H11         10.4173    56.6222    15.4629 H            1 ADP502   0.0000
    39 H12          9.1540    52.0192    13.5500 H            1 ADP502   0.0000
@<TRIPOS>BOND
     1    1    2      ar
     2    1    3      ar
     3    1    4      ar
     4    1    8       1
     5    5    6      ar
     6    5    7      ar
     7    5    8       1
     8    5    9       1
     9    9   10       1
    10   10   11       1
    11   11   12       1
    12   11   13       1
    13   12   17       1
    14   13   14       1
    15   13   15       1
    16   15   16       1
    17   15   17       1
    18   17   18       1
    19   18   19       1
    20   18   27       1
    21   19   20       2
    22   20   21       1
    23   21   22      ar
    24   21   27      ar
    25   22   23       1
    26   22   24      ar
    27   24   25      ar
    28   25   26      ar
    29   26   27      ar
    30   25   39       1
    31   23   38       1
    32   23   37       1
    33   10   28       1
    34   10   29       1
    35   11   30       1
    36   13   31       1
    37   14   32       1
    38   15   33       1
    39   16   34       1
    40   17   35       1
    41   19   36       1
@<TRIPOS>SUBSTRUCTURE
     1 ADP502      1 GROUP             4 G     ADP     0 **** ADP G 502
