@<TRIPOS>MOLECULE
3p0h_FSE_2_ligand
   31    33     1     0     0
SMALL
NO_CHARGES


@<TRIPOS>ATOM
     1 C6           9.9420    83.8410    34.6660 C.ar         1 FSE701   0.0000
     2 C5          10.1070    85.1790    34.3080 C.ar         1 FSE701   0.0000
     3 C10          9.1840    86.1420    34.7260 C.ar         1 FSE701   0.0000
     4 C9           8.0920    85.7300    35.5010 C.ar         1 FSE701   0.0000
     5 C8           7.9290    84.3930    35.8580 C.ar         1 FSE701   0.0000
     6 C7           8.8550    83.4410    35.4420 C.ar         1 FSE701   0.0000
     7 C4           9.3300    87.4850    34.3650 C.2          1 FSE701   0.0000
     8 C3           8.3520    88.3790    34.7790 C.2          1 FSE701   0.0000
     9 C2           7.2590    87.9850    35.5570 C.2          1 FSE701   0.0000
    10 C1'          6.2220    88.8020    36.0210 C.ar         1 FSE701   0.0000
    11 C6'          5.6190    89.7560    35.2030 C.ar         1 FSE701   0.0000
    12 C5'          4.5750    90.5400    35.6980 C.ar         1 FSE701   0.0000
    13 C4'          4.1200    90.3670    37.0040 C.ar         1 FSE701   0.0000
    14 C3'          4.7150    89.4050    37.8150 C.ar         1 FSE701   0.0000
    15 C2'          5.7530    88.6270    37.3230 C.ar         1 FSE701   0.0000
    16 O1           7.1720    86.6600    35.9160 O.2          1 FSE701   0.0000
    17 O4          10.2650    87.8740    33.6630 O.2          1 FSE701   0.0000
    18 O3'          4.2470    89.2610    39.0840 O.3          1 FSE701   0.0000
    19 O4'          3.1030    91.1090    37.5380 O.3          1 FSE701   0.0000
    20 O3           8.4880    89.6800    34.3980 O.3          1 FSE701   0.0000
    21 O7           8.6960    82.1330    35.7890 O.3          1 FSE701   0.0000
    22 H1          10.6103    83.1616    34.3629 H            1 FSE701   0.0000
    23 H2          10.8903    85.4510    33.7490 H            1 FSE701   0.0000
    24 H3           7.1451    84.1170    36.4142 H            1 FSE701   0.0000
    25 H6'          5.9340    89.8789    34.2619 H            1 FSE701   0.0000
    26 H5'          4.1510    91.2302    35.1116 H            1 FSE701   0.0000
    27 H2'          6.1701    87.9322    37.9090 H            1 FSE701   0.0000
    28 H3'          4.6529    88.5788    39.6922 H            1 FSE701   0.0000
    29 H4'          2.8096    90.9499    38.4807 H            1 FSE701   0.0000
    30 H9           9.2705    89.9588    33.8412 H            1 FSE701   0.0000
    31 H10          9.3620    81.4510    35.4868 H            1 FSE701   0.0000
@<TRIPOS>BOND
     1    1    2      ar
     2    1    6      ar
     3    2    3      ar
     4    3    4      ar
     5    3    7       1
     6    4    5      ar
     7    4   16       1
     8    5    6      ar
     9    6   21       1
    10    7    8       1
    11    7   17       2
    12    8    9       2
    13    8   20       1
    14    9   10       1
    15    9   16       1
    16   10   11      ar
    17   10   15      ar
    18   11   12      ar
    19   12   13      ar
    20   13   14      ar
    21   13   19       1
    22   14   15      ar
    23   14   18       1
    24    1   22       1
    25    2   23       1
    26    5   24       1
    27   11   25       1
    28   12   26       1
    29   15   27       1
    30   18   28       1
    31   19   29       1
    32   20   30       1
    33   21   31       1
@<TRIPOS>SUBSTRUCTURE
     1 FSE701      1 GROUP             4 B     FSE     0 **** FSE B 701
