@<TRIPOS>MOLECULE
2r7p_ANP_1_ligand
   31    31     1     0     0
SMALL
NO_CHARGES


@<TRIPOS>ATOM
     1 PG          18.1820   -38.7480    19.0990 P.3          1 ANP400   0.0000
     2 O1G         19.5930   -39.2200    19.2840 O.co2        1 ANP400   0.0000
     3 O2G         18.0250   -37.7880    17.7760 O.co2        1 ANP400  -1.0000
     4 O3G         17.7080   -37.9280    20.4050 O.co2        1 ANP400  -1.0000
     5 PB          17.3410   -41.7040    18.4490 P.3          1 ANP400   0.0000
     6 O1B         18.4770   -42.3330    19.1360 O.co2        1 ANP400   0.0000
     7 O2B         16.0020   -42.5140    18.8050 O.co2        1 ANP400  -1.0000
     8 N3B         17.2300   -40.0650    18.9450 N.3          1 ANP400   0.0000
     9 PA          18.3130   -42.9960    16.0160 P.3          1 ANP400   0.0000
    10 O1A         18.9240   -42.5210    14.7170 O.co2        1 ANP400   0.0000
    11 O2A         19.5140   -43.6740    16.8970 O.co2        1 ANP400  -1.0000
    12 O3A         17.6170   -41.6980    16.8220 O.3          1 ANP400   0.0000
    13 O5'         17.1260   -44.0580    15.6230 O.3          1 ANP400   0.0000
    14 C5'         17.3500   -45.2800    16.1810 C.3          1 ANP400   0.0000
    15 C4'         17.5550   -46.3990    15.1700 C.3          1 ANP400   0.0000
    16 O4'         16.4400   -46.4520    14.2130 O.3          1 ANP400   0.0000
    17 C3'         18.8300   -46.1790    14.3340 C.3          1 ANP400   0.0000
    18 O3'         20.0010   -46.7580    14.9560 O.3          1 ANP400   0.0000
    19 C2'         18.4180   -46.7380    12.9000 C.3          1 ANP400   0.0000
    20 O2'         19.2690   -47.7730    12.3690 O.3          1 ANP400   0.0000
    21 C1'         16.9490   -47.2040    13.0670 C.3          1 ANP400   0.0000
    22 H3B         16.5101   -39.7219    18.3417 H            1 ANP400   0.0000
    23 H5'1        16.5627   -45.5133    16.7517 H            1 ANP400   0.0000
    24 H5'2        18.1689   -45.2189    16.7516 H            1 ANP400   0.0000
    25 H4'         17.6207   -47.2730    15.6514 H            1 ANP400   0.0000
    26 H3'         18.9792   -45.1937    14.2508 H            1 ANP400   0.0000
    27 H6          20.1430   -46.3399    15.8532 H            1 ANP400   0.0000
    28 H2'         18.4268   -45.9722    12.2570 H            1 ANP400   0.0000
    29 H8          18.9299   -48.0557    11.4717 H            1 ANP400   0.0000
    30 H1'1        16.4185   -46.9944    12.2457 H            1 ANP400   0.0000
    31 H1'2        16.9106   -48.1870    13.2468 H            1 ANP400   0.0000
@<TRIPOS>BOND
     1    1    2      ar
     2    1    3      ar
     3    1    4      ar
     4    1    8       1
     5    5    6      ar
     6    5    7      ar
     7    5    8       1
     8    5   12       1
     9    9   10      ar
    10    9   11      ar
    11    9   12       1
    12    9   13       1
    13   13   14       1
    14   14   15       1
    15   15   16       1
    16   15   17       1
    17   16   21       1
    18   17   18       1
    19   17   19       1
    20   19   20       1
    21   19   21       1
    22   21   31       1
    23   21   30       1
    24   20   29       1
    25    8   22       1
    26   19   28       1
    27   14   23       1
    28   14   24       1
    29   15   25       1
    30   17   26       1
    31   18   27       1
@<TRIPOS>SUBSTRUCTURE
     1 ANP400      1 GROUP             4 A     ANP     0 **** ANP A 400
