@<TRIPOS>MOLECULE
3th8_TH9_1_ligand
   51    51     1     0     0
SMALL
NO_CHARGES


@<TRIPOS>ATOM
     1 CAA        -13.0810    -4.1000    -0.2720 C.3          1 TH9289   0.0000
     2 OAB         -3.6140     9.2780    -2.0070 O.co2        1 TH9289   0.0000
     3 OAC         -6.6200     6.6110     0.6770 O.2          1 TH9289   0.0000
     4 OAD         -2.9090    10.1880    -0.1470 O.co2        1 TH9289  -1.0000
     5 OAE         -4.7130     8.5600     1.2270 O.2          1 TH9289   0.0000
     6 CAF         -5.4040     7.6160    -1.0690 C.3          1 TH9289   0.0000
     7 CAG        -10.8670     2.4850    -3.9440 C.ar         1 TH9289   0.0000
     8 CAH         -9.5090     2.6680    -3.6940 C.ar         1 TH9289   0.0000
     9 CAI        -11.6690     1.9080    -2.9680 C.ar         1 TH9289   0.0000
    10 CAJ         -9.7260     1.7200    -1.4990 C.ar         1 TH9289   0.0000
    11 CAK        -13.9140    -3.0390     0.4790 C.3          1 TH9289   0.0000
    12 CAL        -13.4890    -1.6040     0.1180 C.3          1 TH9289   0.0000
    13 CAM        -12.1840    -1.1710     0.8130 C.3          1 TH9289   0.0000
    14 CAN        -12.3450     0.2330     1.4530 C.3          1 TH9289   0.0000
    15 CAO         -7.2220     3.5680    -1.1820 C.3          1 TH9289   0.0000
    16 CAP         -8.0260     4.9030    -1.2260 C.3          1 TH9289   0.0000
    17 CAQ        -11.6990     1.3080     0.5650 C.3          1 TH9289   0.0000
    18 CAR         -7.5550     2.5280    -2.3030 C.3          1 TH9289   0.0000
    19 NAS         -7.0630     5.9830    -1.4660 N.am         1 TH9289   0.0000
    20 OAT        -11.9400     0.9720    -0.8130 O.3          1 TH9289   0.0000
    21 CAU         -3.6460     9.3780    -0.7900 C.2          1 TH9289   0.0000
    22 CAV         -6.4510     6.6980    -0.5240 C.2          1 TH9289   0.0000
    23 CAW         -4.5970     8.4970    -0.1180 C.2          1 TH9289   0.0000
    24 CAX         -8.9320     2.3060    -2.4880 C.ar         1 TH9289   0.0000
    25 CAY        -11.1000     1.5320    -1.7430 C.ar         1 TH9289   0.0000
    26 HAA1       -13.3896    -5.0139    -0.0084 H            1 TH9289   0.0000
    27 HAA2       -13.1988    -3.9798    -1.2577 H            1 TH9289   0.0000
    28 HAA3       -12.1150    -3.9935    -0.0363 H            1 TH9289   0.0000
    29 HAF1        -5.8628     8.2289    -1.7123 H            1 TH9289   0.0000
    30 HAF2        -4.7474     7.0457    -1.5626 H            1 TH9289   0.0000
    31 HAG        -11.2611     2.7667    -4.8188 H            1 TH9289   0.0000
    32 HAH         -8.9343     3.0723    -4.4055 H            1 TH9289   0.0000
    33 HAI        -12.6437     1.7620    -3.1374 H            1 TH9289   0.0000
    34 HAJ         -9.3234     1.4375    -0.6283 H            1 TH9289   0.0000
    35 HAK1       -13.7942    -3.1726     1.4628 H            1 TH9289   0.0000
    36 HAK2       -14.8779    -3.1589     0.2413 H            1 TH9289   0.0000
    37 HAL1       -14.2188    -0.9771     0.3909 H            1 TH9289   0.0000
    38 HAL2       -13.3562    -1.5502    -0.8717 H            1 TH9289   0.0000
    39 HAM1       -11.4465    -1.1418     0.1383 H            1 TH9289   0.0000
    40 HAM2       -11.9566    -1.8333     1.5269 H            1 TH9289   0.0000
    41 HAN1       -11.9030     0.2382     2.3500 H            1 TH9289   0.0000
    42 HAN2       -13.3183     0.4361     1.5599 H            1 TH9289   0.0000
    43 HAO1        -7.3994     3.1332    -0.2991 H            1 TH9289   0.0000
    44 HAO2        -6.2504     3.7937    -1.2532 H            1 TH9289   0.0000
    45 HAP1        -8.4946     5.0494    -0.3548 H            1 TH9289   0.0000
    46 HAP2        -8.6986     4.8734    -1.9654 H            1 TH9289   0.0000
    47 HAQ1       -10.7144     1.3395     0.7367 H            1 TH9289   0.0000
    48 HAQ2       -12.1017     2.2002     0.7694 H            1 TH9289   0.0000
    49 HAR1        -7.1259     1.6576    -2.0617 H            1 TH9289   0.0000
    50 HAR2        -7.1718     2.8610    -3.1645 H            1 TH9289   0.0000
    51 HAS         -6.8478     6.2009    -2.4179 H            1 TH9289   0.0000
@<TRIPOS>BOND
     1    1   11       1
     2    2   21      ar
     3    3   22       2
     4    4   21      ar
     5    5   23       2
     6    6   22       1
     7    6   23       1
     8    7    8      ar
     9    7    9      ar
    10    8   24      ar
    11    9   25      ar
    12   10   24      ar
    13   10   25      ar
    14   11   12       1
    15   12   13       1
    16   13   14       1
    17   14   17       1
    18   15   16       1
    19   15   18       1
    20   16   19       1
    21   17   20       1
    22   18   24       1
    23   19   22      am
    24   20   25       1
    25   21   23       1
    26    1   26       1
    27    1   27       1
    28    1   28       1
    29   19   51       1
    30    6   29       1
    31    6   30       1
    32    7   31       1
    33    8   32       1
    34    9   33       1
    35   10   34       1
    36   11   35       1
    37   11   36       1
    38   12   37       1
    39   12   38       1
    40   13   39       1
    41   13   40       1
    42   14   41       1
    43   14   42       1
    44   15   43       1
    45   15   44       1
    46   16   45       1
    47   16   46       1
    48   17   47       1
    49   17   48       1
    50   18   49       1
    51   18   50       1
@<TRIPOS>SUBSTRUCTURE
     1 TH9289      1 GROUP             4 B     TH9     0 **** TH9 B 289
