@<TRIPOS>MOLECULE
1i7a_PHE_ALA_PHE_1_ligand
   53    54     3     0     0
SMALL
NO_CHARGES


@<TRIPOS>ATOM
     1 N           11.1280    14.6490    36.7760 N.4          1 PHE201   1.0000
     2 CA          10.8150    14.0650    38.0780 C.3          1 PHE201   0.0000
     3 C            9.3870    13.5180    38.0000 C.2          1 PHE201   0.0000
     4 O            8.6100    13.6500    38.9450 O.2          1 PHE201   0.0000
     5 CB          10.9080    15.1500    39.1590 C.3          1 PHE201   0.0000
     6 CG          11.1700    14.6290    40.5560 C.ar         1 PHE201   0.0000
     7 CD1         10.6350    13.4180    40.9940 C.ar         1 PHE201   0.0000
     8 CD2         11.8830    15.4040    41.4660 C.ar         1 PHE201   0.0000
     9 CE1         10.8050    12.9950    42.3150 C.ar         1 PHE201   0.0000
    10 CE2         12.0550    14.9850    42.7910 C.ar         1 PHE201   0.0000
    11 CZ          11.5120    13.7800    43.2140 C.ar         1 PHE201   0.0000
    12 H1          11.5411    13.9527    36.1890 H            1 PHE201   0.0000
    13 H2          10.2880    14.9871    36.3517 H            1 PHE201   0.0000
    14 HA          11.4541    13.3235    38.2823 H            1 PHE201   0.0000
    15 HB1         10.0437    15.6529    39.1709 H            1 PHE201   0.0000
    16 HB2         11.6520    15.7715    38.9136 H            1 PHE201   0.0000
    17 HD1         10.1229    12.8447    40.3544 H            1 PHE201   0.0000
    18 HD2         12.2784    16.2732    41.1691 H            1 PHE201   0.0000
    19 HE1         10.4157    12.1235    42.6132 H            1 PHE201   0.0000
    20 HE2         12.5692    15.5542    43.4326 H            1 PHE201   0.0000
    21 HZ          11.6296    13.4796    44.1605 H            1 PHE201   0.0000
    22 N            9.0480    12.9010    36.8730 N.am         2 ALA202   0.0000
    23 CA           7.7120    12.3680    36.6810 C.3          2 ALA202   0.0000
    24 C            7.3980    11.1930    37.6060 C.2          2 ALA202   0.0000
    25 O            8.2220    10.8020    38.4280 O.2          2 ALA202   0.0000
    26 CB           7.5390    11.9510    35.2370 C.3          2 ALA202   0.0000
    27 H11          9.7256    12.8022    36.1442 H            2 ALA202   0.0000
    28 H12          7.0563    13.0980    36.8736 H            2 ALA202   0.0000
    29 H13          6.6185    11.5836    35.1041 H            2 ALA202   0.0000
    30 H14          7.6701    12.7446    34.6429 H            2 ALA202   0.0000
    31 HB3          8.2140    11.2492    35.0096 H            2 ALA202   0.0000
    32 N            6.1920    10.6450    37.4730 N.am         3 PHE203   0.0000
    33 CA           5.7490     9.4980    38.2710 C.3          3 PHE203   0.0000
    34 C            5.0640     8.4580    37.3840 C.2          3 PHE203   0.0000
    35 O            5.2550     8.4370    36.1640 O.2          3 PHE203   0.0000
    36 CB           4.7760     9.9370    39.3680 C.3          3 PHE203   0.0000
    37 CG           5.4450    10.3890    40.6300 C.ar         3 PHE203   0.0000
    38 CD1          6.3050    11.4800    40.6290 C.ar         3 PHE203   0.0000
    39 CD2          5.2070     9.7250    41.8250 C.ar         3 PHE203   0.0000
    40 CE1          6.9170    11.9010    41.8040 C.ar         3 PHE203   0.0000
    41 CE2          5.8130    10.1390    43.0050 C.ar         3 PHE203   0.0000
    42 CZ           6.6680    11.2280    42.9940 C.ar         3 PHE203   0.0000
    43 H16          5.5616    11.0323    36.8002 H            3 PHE203   0.0000
    44 H17          6.5484     9.0775    38.7002 H            3 PHE203   0.0000
    45 H18          4.4518     7.7844    37.7981 H            3 PHE203   0.0000
    46 H19          4.1799     9.1646    39.5872 H            3 PHE203   0.0000
    47 H20          4.2252    10.6936    39.0156 H            3 PHE203   0.0000
    48 H21          6.4856    11.9673    39.7746 H            3 PHE203   0.0000
    49 H22          4.5908     8.9375    41.8372 H            3 PHE203   0.0000
    50 H23          7.5354    12.6868    41.7929 H            3 PHE203   0.0000
    51 H24          5.6321     9.6519    43.8594 H            3 PHE203   0.0000
    52 H25          7.1056    11.5297    43.8410 H            3 PHE203   0.0000
    53 H26         11.7692    15.4069    36.8961 H            3 PHE203   0.0000
@<TRIPOS>BOND
     1    1    2       1
     2    2    5       1
     3    2    3       1
     4    5    6       1
     5    6    7      ar
     6    6    8      ar
     7    7    9      ar
     8    9   11      ar
     9   11   10      ar
    10   10    8      ar
    11    3    4       2
    12    1   12       1
    13    1   13       1
    14    2   14       1
    15    3   22      am
    16    5   15       1
    17    5   16       1
    18    7   17       1
    19    8   18       1
    20    9   19       1
    21   10   20       1
    22   11   21       1
    23   22   23       1
    24   23   26       1
    25   23   24       1
    26   24   25       2
    27   26   31       1
    28   22   27       1
    29   23   28       1
    30   24   32      am
    31   26   29       1
    32   26   30       1
    33   32   33       1
    34   33   36       1
    35   33   34       1
    36   36   37       1
    37   37   38      ar
    38   37   39      ar
    39   38   40      ar
    40   40   42      ar
    41   42   41      ar
    42   41   39      ar
    43   34   35       2
    44   42   52       1
    45   32   43       1
    46   33   44       1
    47   34   45       1
    48   36   46       1
    49   36   47       1
    50   38   48       1
    51   39   49       1
    52   40   50       1
    53   41   51       1
    54    1   53       1
@<TRIPOS>SUBSTRUCTURE
     1 PHE201      1 RESIDUE           4 E     PHE     0 **** PHE E 201
     2 ALA202     22 RESIDUE           4 E     ALA     0 **** ALA E 202
     3 PHE203     32 RESIDUE           4 E     PHE     0 **** PHE E 203
