@<TRIPOS>MOLECULE
4euc_0RQ_1_ligand
   87    89     1     0     0
SMALL
NO_CHARGES


@<TRIPOS>ATOM
     1 O3B         16.5040   -20.9920    38.1990 O.3          1 0RQ601   0.0000
     2 O7A         18.2570   -22.8630    37.9760 O.co2        1 0RQ601   0.0000
     3 O8A         18.2230   -21.4010    39.9800 O.co2        1 0RQ601  -1.0000
     4 O9A         16.4320   -23.1240    39.6190 O.co2        1 0RQ601  -1.0000
     5 O4B         15.3390   -19.3090    36.1320 O.3          1 0RQ601   0.0000
     6 O5B         13.5690   -21.2630    35.1610 O.3          1 0RQ601   0.0000
     7 O1A         11.1880   -22.1480    35.1930 O.co2        1 0RQ601   0.0000
     8 O2A         13.0830   -23.7070    34.8090 O.co2        1 0RQ601  -1.0000
     9 O3A         12.2390   -22.0730    33.0240 O.3          1 0RQ601   0.0000
    10 O4A         14.1570   -23.1950    31.7280 O.co2        1 0RQ601   0.0000
    11 O5A         12.2090   -22.0290    30.6590 O.co2        1 0RQ601  -1.0000
    12 O6A         14.0840   -20.7220    31.7810 O.3          1 0RQ601   0.0000
    13 CDP         15.8680   -18.4730    31.9930 C.3          1 0RQ601   0.0000
    14 CEP         14.0860   -17.0160    31.0320 C.3          1 0RQ601   0.0000
    15 CCP         13.5790   -19.4530    31.5900 C.3          1 0RQ601   0.0000
    16 CAP         15.1260   -18.9540    29.7110 C.3          1 0RQ601   0.0000
    17 CBP         14.6610   -18.4530    31.0830 C.3          1 0RQ601   0.0000
    18 C1B         14.6880   -19.1110    37.3490 C.3          1 0RQ601   0.0000
    19 C2B         14.3200   -20.4800    37.8410 C.3          1 0RQ601   0.0000
    20 C3B         15.3960   -21.2620    37.3600 C.3          1 0RQ601   0.0000
    21 C5B         14.9850   -21.3670    35.0260 C.3          1 0RQ601   0.0000
    22 P3B         17.3700   -22.1340    38.9520 P.3          1 0RQ601   0.0000
    23 P1A         12.5510   -22.3140    34.5630 P.3          1 0RQ601   0.0000
    24 P2A         13.1940   -22.0230    31.7710 P.3          1 0RQ601   0.0000
    25 C2P         15.5340   -18.1100    21.2240 C.3          1 0RQ601   0.0000
    26 C3P         15.0300   -17.8990    22.6530 C.3          1 0RQ601   0.0000
    27 C7P         16.4460   -16.3020    27.2310 C.3          1 0RQ601   0.0000
    28 C6P         16.9370   -16.7640    25.8930 C.3          1 0RQ601   0.0000
    29 C5P         15.7610   -17.1080    25.0120 C.2          1 0RQ601   0.0000
    30 C9P         16.0800   -17.9910    29.0490 C.2          1 0RQ601   0.0000
    31 C4B         15.7420   -20.6670    36.0670 C.3          1 0RQ601   0.0000
    32 OAP         14.0220   -19.0770    28.8540 O.3          1 0RQ601   0.0000
    33 O9P         17.2160   -17.8090    29.4980 O.2          1 0RQ601   0.0000
    34 O5P         14.6300   -17.0140    25.4500 O.2          1 0RQ601   0.0000
    35 N8P         15.5910   -17.2620    27.9000 N.am         1 0RQ601   0.0000
    36 N4P         16.0490   -17.5350    23.6620 N.am         1 0RQ601   0.0000
    37 O2B         14.2750   -20.5030    39.2330 O.3          1 0RQ601   0.0000
    38 C2A         13.4510   -15.5690    39.6710 C.ar         1 0RQ601   0.0000
    39 C6A         11.5510   -15.5840    38.3510 C.ar         1 0RQ601   0.0000
    40 C5M         12.0360   -16.7000    37.6670 C.ar         1 0RQ601   0.0000
    41 C4A         13.2670   -17.2270    38.0430 C.ar         1 0RQ601   0.0000
    42 C8A         12.4800   -18.4440    36.4120 C.2          1 0RQ601   0.0000
    43 N6A         10.2830   -15.0030    38.0070 N.pl3        1 0RQ601   0.0000
    44 N1A         12.2750   -15.0370    39.3450 N.ar         1 0RQ601   0.0000
    45 N3A         13.9400   -16.6430    39.0430 N.ar         1 0RQ601   0.0000
    46 N9A         13.5100   -18.2960    37.2520 N.pl3        1 0RQ601   0.0000
    47 N7A         11.5750   -17.4720    36.6530 N.2          1 0RQ601   0.0000
    48 C1P         16.6060   -19.1920    21.0810 C.3          1 0RQ601   0.0000
    49 C           17.8630   -18.6830    21.7100 C.2          1 0RQ601   0.0000
    50 O           17.9360   -17.5010    21.9520 O.2          1 0RQ601   0.0000
    51 CH3         18.9710   -19.6360    22.0430 C.3          1 0RQ601   0.0000
    52 HDP1        16.2429   -19.3994    32.0291 H            1 0RQ601   0.0000
    53 HDP2        16.5623   -17.8460    31.6397 H            1 0RQ601   0.0000
    54 HDP3        15.5972   -18.1869    32.9122 H            1 0RQ601   0.0000
    55 HEP1        13.2870   -16.9978    30.4309 H            1 0RQ601   0.0000
    56 HEP2        13.8173   -16.7316    31.9523 H            1 0RQ601   0.0000
    57 HEP3        14.7823   -16.3906    30.6798 H            1 0RQ601   0.0000
    58 HCP1        13.2145   -19.1183    32.4590 H            1 0RQ601   0.0000
    59 HCP2        12.8426   -19.4987    30.9150 H            1 0RQ601   0.0000
    60 HAP         15.5691   -19.8446    29.8139 H            1 0RQ601   0.0000
    61 H1B         15.3243   -18.6908    37.9960 H            1 0RQ601   0.0000
    62 H2B         13.4516   -20.7822    37.4479 H            1 0RQ601   0.0000
    63 H3B         15.1775   -22.2359    37.2987 H            1 0RQ601   0.0000
    64 H5B1        15.2442   -20.9844    34.1392 H            1 0RQ601   0.0000
    65 H5B2        15.2324   -22.3354    35.0563 H            1 0RQ601   0.0000
    66 H2P1        15.9172   -17.2460    20.8975 H            1 0RQ601   0.0000
    67 H2P2        14.7542   -18.3659    20.6527 H            1 0RQ601   0.0000
    68 H3P1        14.5962   -18.7492    22.9514 H            1 0RQ601   0.0000
    69 H3P2        14.3488   -17.1672    22.6306 H            1 0RQ601   0.0000
    70 H7P1        15.9301   -15.4550    27.1029 H            1 0RQ601   0.0000
    71 H7P2        17.2386   -16.1246    27.8143 H            1 0RQ601   0.0000
    72 H6P1        17.5121   -17.5735    26.0111 H            1 0RQ601   0.0000
    73 H6P2        17.4713   -16.0351    25.4649 H            1 0RQ601   0.0000
    74 H4B         16.7250   -20.7367    35.8971 H            1 0RQ601   0.0000
    75 H24         14.1918   -19.8094    28.1947 H            1 0RQ601   0.0000
    76 H8P         14.6616   -17.4205    27.5666 H            1 0RQ601   0.0000
    77 H4P         17.0095   -17.5885    23.3891 H            1 0RQ601   0.0000
    78 H27         14.5165   -21.4169    39.5593 H            1 0RQ601   0.0000
    79 H2A         13.9844   -15.1529    40.4075 H            1 0RQ601   0.0000
    80 H8A         12.3942   -19.1588    35.7180 H            1 0RQ601   0.0000
    81 H6A1         9.9477   -14.2035    38.5054 H            1 0RQ601   0.0000
    82 H6A2         9.7357   -15.3981    37.2692 H            1 0RQ601   0.0000
    83 H1P1        16.7654   -19.3860    20.1130 H            1 0RQ601   0.0000
    84 H1P2        16.3090   -20.0272    21.5439 H            1 0RQ601   0.0000
    85 HH31        19.7311   -19.1329    22.4542 H            1 0RQ601   0.0000
    86 HH32        18.6373   -20.3225    22.6891 H            1 0RQ601   0.0000
    87 HH33        19.2838   -20.0885    21.2079 H            1 0RQ601   0.0000
@<TRIPOS>BOND
     1    1   20       1
     2    1   22       1
     3    2   22      ar
     4    3   22      ar
     5    4   22      ar
     6    5   18       1
     7    5   31       1
     8    6   21       1
     9    6   23       1
    10    7   23      ar
    11    8   23      ar
    12    9   23       1
    13    9   24       1
    14   10   24      ar
    15   11   24      ar
    16   12   15       1
    17   12   24       1
    18   13   17       1
    19   14   17       1
    20   15   17       1
    21   16   17       1
    22   16   30       1
    23   16   32       1
    24   18   19       1
    25   18   46       1
    26   19   20       1
    27   19   37       1
    28   20   31       1
    29   21   31       1
    30   25   26       1
    31   25   48       1
    32   26   36       1
    33   27   28       1
    34   27   35       1
    35   28   29       1
    36   29   34       2
    37   29   36      am
    38   30   33       2
    39   30   35      am
    40   38   44      ar
    41   38   45      ar
    42   39   40      ar
    43   39   43       1
    44   39   44      ar
    45   40   41      ar
    46   40   47       1
    47   41   45      ar
    48   41   46       1
    49   42   46       1
    50   42   47       2
    51   48   49       1
    52   49   50       2
    53   49   51       1
    54   51   87       1
    55   51   86       1
    56   51   85       1
    57   48   84       1
    58   13   52       1
    59   13   53       1
    60   13   54       1
    61   14   55       1
    62   14   56       1
    63   14   57       1
    64   15   58       1
    65   15   59       1
    66   16   60       1
    67   18   61       1
    68   19   62       1
    69   20   63       1
    70   21   64       1
    71   21   65       1
    72   25   66       1
    73   25   67       1
    74   26   68       1
    75   26   69       1
    76   27   70       1
    77   27   71       1
    78   28   72       1
    79   28   73       1
    80   31   74       1
    81   32   75       1
    82   35   76       1
    83   36   77       1
    84   37   78       1
    85   38   79       1
    86   42   80       1
    87   43   81       1
    88   43   82       1
    89   48   83       1
@<TRIPOS>SUBSTRUCTURE
     1 0RQ601      1 GROUP             4 A     0RQ     0 **** 0RQ A 601
