@<TRIPOS>MOLECULE
5cb3_APR_1_ligand
   57    60     1     0     0
SMALL
NO_CHARGES


@<TRIPOS>ATOM
     1 N1          52.9930    38.2180    85.1580 N.ar         1 APR401   0.0000
     2 C2          52.1830    37.1930    84.8190 C.ar         1 APR401   0.0000
     3 N3          52.3010    35.9620    85.3520 N.ar         1 APR401   0.0000
     4 C4          53.2560    35.6890    86.2720 C.ar         1 APR401   0.0000
     5 C5          54.1690    36.7520    86.6930 C.ar         1 APR401   0.0000
     6 C6          53.9850    38.0770    86.0690 C.ar         1 APR401   0.0000
     7 N6          54.8000    39.0980    86.4130 N.pl3        1 APR401   0.0000
     8 N7          55.0040    36.2110    87.5980 N.2          1 APR401   0.0000
     9 C8          54.6560    34.9110    87.7550 C.2          1 APR401   0.0000
    10 N9          53.6180    34.6090    86.9540 N.pl3        1 APR401   0.0000
    11 C1'         52.9050    33.3280    86.8100 C.3          1 APR401   0.0000
    12 C2'         53.6220    32.0840    87.2990 C.3          1 APR401   0.0000
    13 O2'         54.6550    31.6990    86.3860 O.3          1 APR401   0.0000
    14 C3'         52.4440    31.1320    87.3360 C.3          1 APR401   0.0000
    15 O3'         52.1720    30.6040    86.0300 O.3          1 APR401   0.0000
    16 O4'         51.7050    33.3730    87.5830 O.3          1 APR401   0.0000
    17 C4'         51.2900    32.0200    87.8000 C.3          1 APR401   0.0000
    18 C5'         50.9330    31.8050    89.2690 C.3          1 APR401   0.0000
    19 O5'         52.1090    31.5010    90.0100 O.3          1 APR401   0.0000
    20 PA          52.3380    32.0390    91.5040 P.3          1 APR401   0.0000
    21 O1A         53.3210    31.0670    92.1450 O.co2        1 APR401   0.0000
    22 O2A         52.6540    33.5100    91.3780 O.co2        1 APR401  -1.0000
    23 O3A         50.9010    31.9260    92.2290 O.3          1 APR401   0.0000
    24 PB          50.2000    30.6200    92.8690 P.3          1 APR401   0.0000
    25 O1B         48.7240    30.9310    92.9190 O.co2        1 APR401   0.0000
    26 O2B         50.6390    29.3200    92.2280 O.co2        1 APR401  -1.0000
    27 O5D         50.7630    30.6040    94.3720 O.3          1 APR401   0.0000
    28 C5D         50.3680    31.6260    95.2770 C.3          1 APR401   0.0000
    29 O4D         52.6000    32.3900    95.7830 O.3          1 APR401   0.0000
    30 O1D         53.3270    34.6180    95.4270 O.3          1 APR401   0.0000
    31 C1D         52.8450    33.6740    96.3820 C.3          1 APR401   0.0000
    32 O2D         51.6090    35.0430    98.0170 O.3          1 APR401   0.0000
    33 C2D         51.5020    34.1120    96.9380 C.3          1 APR401   0.0000
    34 O3D         51.5800    32.4570    98.6430 O.3          1 APR401   0.0000
    35 C3D         50.9610    32.7920    97.4030 C.3          1 APR401   0.0000
    36 C4D         51.4230    31.8090    96.3510 C.3          1 APR401   0.0000
    37 H1          51.4642    37.3547    84.1428 H            1 APR401   0.0000
    38 H2          55.5218    38.9552    87.0902 H            1 APR401   0.0000
    39 H3          54.6815    39.9966    85.9905 H            1 APR401   0.0000
    40 H4          55.1055    34.2690    88.3762 H            1 APR401   0.0000
    41 H1'         52.6627    33.2017    85.8480 H            1 APR401   0.0000
    42 H2'         53.9934    32.2255    88.2166 H            1 APR401   0.0000
    43 H7          54.6779    32.3402    85.6190 H            1 APR401   0.0000
    44 H3'         52.6067    30.3929    87.9897 H            1 APR401   0.0000
    45 H9          51.3924    29.9796    86.0786 H            1 APR401   0.0000
    46 H4'         50.4854    31.8308    87.2371 H            1 APR401   0.0000
    47 H5'1        50.2863    31.0461    89.3461 H            1 APR401   0.0000
    48 H5'2        50.5157    32.6370    89.6347 H            1 APR401   0.0000
    49 H5D1        49.5010    31.3713    95.7053 H            1 APR401   0.0000
    50 H5D2        50.2532    32.4842    94.7768 H            1 APR401   0.0000
    51 H1D         52.6491    34.7335    94.7010 H            1 APR401   0.0000
    52 H16         53.5051    33.5794    97.1272 H            1 APR401   0.0000
    53 H2D         51.1455    35.8940    97.7702 H            1 APR401   0.0000
    54 H18         50.9285    34.4868    96.2096 H            1 APR401   0.0000
    55 H3D         51.2278    31.5781    98.9646 H            1 APR401   0.0000
    56 H20         49.9641    32.8083    97.4806 H            1 APR401   0.0000
    57 H4D         51.6418    30.9293    96.7732 H            1 APR401   0.0000
@<TRIPOS>BOND
     1    1    2      ar
     2    1    6      ar
     3    2    3      ar
     4    3    4      ar
     5    4    5      ar
     6    4   10       1
     7    5    6      ar
     8    5    8       1
     9    6    7       1
    10    8    9       2
    11    9   10       1
    12   10   11       1
    13   11   12       1
    14   11   16       1
    15   12   13       1
    16   12   14       1
    17   14   15       1
    18   14   17       1
    19   16   17       1
    20   17   18       1
    21   18   19       1
    22   19   20       1
    23   20   21      ar
    24   20   22      ar
    25   20   23       1
    26   23   24       1
    27   24   25      ar
    28   24   26      ar
    29   24   27       1
    30   27   28       1
    31   28   36       1
    32   29   31       1
    33   29   36       1
    34   30   31       1
    35   31   33       1
    36   32   33       1
    37   33   35       1
    38   34   35       1
    39   35   36       1
    40    2   37       1
    41    7   38       1
    42    7   39       1
    43    9   40       1
    44   11   41       1
    45   12   42       1
    46   13   43       1
    47   14   44       1
    48   15   45       1
    49   17   46       1
    50   18   47       1
    51   18   48       1
    52   36   57       1
    53   35   56       1
    54   28   49       1
    55   28   50       1
    56   30   51       1
    57   31   52       1
    58   32   53       1
    59   33   54       1
    60   34   55       1
@<TRIPOS>SUBSTRUCTURE
     1 APR401      1 GROUP             4 A     APR     0 **** APR A 401
