@<TRIPOS>MOLECULE
2brh_DFW_1_ligand
   40    43     1     0     0
SMALL
NO_CHARGES


@<TRIPOS>ATOM
     1 C2          14.7740    -0.4920     9.4980 C.ar         1 DFW1272   0.0000
     2 C10         18.9250    -2.3310     9.2240 C.2          1 DFW1272   0.0000
     3 C11         20.3690    -2.6180     8.8710 C.ar         1 DFW1272   0.0000
     4 C12         21.1530    -1.5580     8.3760 C.ar         1 DFW1272   0.0000
     5 C13         22.4750    -1.7610     8.0070 C.ar         1 DFW1272   0.0000
     6 C14         23.0470    -3.0510     8.1200 C.ar         1 DFW1272   0.0000
     7 C15         22.2760    -4.1310     8.5860 C.ar         1 DFW1272   0.0000
     8 C16         20.9370    -3.9140     8.9420 C.ar         1 DFW1272   0.0000
     9 C19         19.1910    -4.5630    11.5970 C.ar         1 DFW1272   0.0000
    10 C20         19.3540    -5.7980    12.2630 C.ar         1 DFW1272   0.0000
    11 C21         18.4310    -6.8340    12.0720 C.ar         1 DFW1272   0.0000
    12 C22         17.3620    -6.6460    11.1730 C.ar         1 DFW1272   0.0000
    13 N1          15.9700    -0.3250     8.9230 N.ar         1 DFW1272   0.0000
    14 C6          16.9750    -1.2000     9.1640 C.ar         1 DFW1272   0.0000
    15 O6          18.3070    -1.1970     8.7450 O.2          1 DFW1272   0.0000
    16 C5          16.7610    -2.3200     9.9480 C.ar         1 DFW1272   0.0000
    17 N9          15.1070    -3.5830    11.2520 N.pl3        1 DFW1272   0.0000
    18 C4          15.4630    -2.5000    10.4850 C.ar         1 DFW1272   0.0000
    19 N3          14.4970    -1.5810    10.2300 N.ar         1 DFW1272   0.0000
    20 C17         17.2120    -5.4100    10.5090 C.ar         1 DFW1272   0.0000
    21 C1          17.9570    -3.0430     9.9770 C.2          1 DFW1272   0.0000
    22 C18         18.1290    -4.3590    10.7130 C.ar         1 DFW1272   0.0000
    23 C23         13.8760    -4.8900    12.8870 C.2          1 DFW1272   0.0000
    24 C8          13.7760    -3.7470    11.8920 C.3          1 DFW1272   0.0000
    25 O24         12.8460    -5.3340    13.4390 O.co2        1 DFW1272   0.0000
    26 O3          14.9480    -5.6680    12.7710 O.co2        1 DFW1272  -1.0000
    27 H1          14.0716     0.2099     9.3796 H            1 DFW1272   0.0000
    28 H2          20.7513    -0.6463     8.2893 H            1 DFW1272   0.0000
    29 H3          23.0222    -0.9983     7.6622 H            1 DFW1272   0.0000
    30 H4          24.0038    -3.1950     7.8673 H            1 DFW1272   0.0000
    31 H5          22.6781    -5.0434     8.6626 H            1 DFW1272   0.0000
    32 H6          20.3766    -4.6830     9.2496 H            1 DFW1272   0.0000
    33 H7          19.8451    -3.8245    11.7607 H            1 DFW1272   0.0000
    34 H8          20.1334    -5.9335    12.8748 H            1 DFW1272   0.0000
    35 H9          18.5293    -7.6969    12.5677 H            1 DFW1272   0.0000
    36 H10         16.7113    -7.3868    11.0061 H            1 DFW1272   0.0000
    37 H11         15.7853    -4.3052    11.3879 H            1 DFW1272   0.0000
    38 H12         16.4429    -5.2775     9.8837 H            1 DFW1272   0.0000
    39 H13         13.0887    -3.9599    11.1975 H            1 DFW1272   0.0000
    40 H14         13.5207    -2.9045    12.3664 H            1 DFW1272   0.0000
@<TRIPOS>BOND
     1    1   13      ar
     2    1   19      ar
     3    2    3       1
     4    2   15       1
     5    2   21       2
     6    3    4      ar
     7    3    8      ar
     8    4    5      ar
     9    5    6      ar
    10    6    7      ar
    11    7    8      ar
    12    9   10      ar
    13    9   22      ar
    14   10   11      ar
    15   11   12      ar
    16   12   20      ar
    17   13   14      ar
    18   14   15       1
    19   14   16      ar
    20   16   18      ar
    21   16   21       1
    22   17   18       1
    23   17   24       1
    24   18   19      ar
    25   20   22      ar
    26   21   22       1
    27   23   24       1
    28   23   25      ar
    29   23   26      ar
    30    1   27       1
    31    4   28       1
    32    5   29       1
    33    6   30       1
    34    7   31       1
    35    8   32       1
    36    9   33       1
    37   10   34       1
    38   11   35       1
    39   12   36       1
    40   17   37       1
    41   20   38       1
    42   24   39       1
    43   24   40       1
@<TRIPOS>SUBSTRUCTURE
     1 DFW1272     1 GROUP             4 A     DFW     0 **** DFW A1272
