@<TRIPOS>MOLECULE
4kqq_IMD_2_ligand
    9     9     1     0     0
SMALL
NO_CHARGES


@<TRIPOS>ATOM
     1 N1           7.0050     6.9440    28.6980 N.pl3        1 IMD605   0.0000
     2 C2           6.3450     7.8910    29.4050 C.2          1 IMD605   0.0000
     3 N3           6.9300     9.0900    29.1720 N.2          1 IMD605   0.0000
     4 C4           7.9580     8.8970    28.3160 C.2          1 IMD605   0.0000
     5 C5           8.0080     7.5490    28.0200 C.2          1 IMD605   0.0000
     6 H1           6.7892     5.9677    28.6798 H            1 IMD605   0.0000
     7 H2           5.5571     7.7319    29.9999 H            1 IMD605   0.0000
     8 H3           8.5714     9.6026    27.9612 H            1 IMD605   0.0000
     9 H4           8.6659     7.1012    27.4145 H            1 IMD605   0.0000
@<TRIPOS>BOND
     1    1    2       1
     2    1    5       1
     3    2    3       2
     4    3    4       1
     5    4    5       2
     6    1    6       1
     7    2    7       1
     8    4    8       1
     9    5    9       1
@<TRIPOS>SUBSTRUCTURE
     1 IMD605      1 GROUP             4 A     IMD     0 **** IMD A 605
