@<TRIPOS>MOLECULE
1lbm_137_1_ligand
   38    38     1     0     0
SMALL
NO_CHARGES


@<TRIPOS>ATOM
     1 P           11.7260    26.1070    63.9220 P.3          1 137400   0.0000
     2 O1P         11.0190    25.1140    64.7810 O.co2        1 137400   0.0000
     3 O2P         12.8710    26.8370    64.5720 O.co2        1 137400  -1.0000
     4 O3P         12.1600    25.5610    62.5890 O.co2        1 137400  -1.0000
     5 O5'         10.4750    27.0600    63.6440 O.3          1 137400   0.0000
     6 C5'         10.7310    28.4270    63.6180 C.3          1 137400   0.0000
     7 C4'          9.4690    29.2340    63.3300 C.3          1 137400   0.0000
     8 O4'          9.1200    29.8220    64.5590 O.3          1 137400   0.0000
     9 C3'          9.9610    30.1800    62.2590 C.3          1 137400   0.0000
    10 O3'         10.2420    29.2090    61.2680 O.3          1 137400   0.0000
    11 C2'          9.1870    31.2770    61.5430 C.3          1 137400   0.0000
    12 O2'          8.0050    31.6650    62.2140 O.3          1 137400   0.0000
    13 C1'         10.1810    32.4260    61.3470 C.3          1 137400   0.0000
    14 NH          11.3900    32.4140    61.9240 N.pl3        1 137400   0.0000
    15 C1          13.2110    33.7070    63.1460 C.ar         1 137400   0.0000
    16 C2          11.8100    33.4660    62.6910 C.ar         1 137400   0.0000
    17 C3          10.8920    34.4050    63.0960 C.ar         1 137400   0.0000
    18 C4          11.2890    35.4920    63.8740 C.ar         1 137400   0.0000
    19 C5          12.6030    35.6850    64.2850 C.ar         1 137400   0.0000
    20 C6          13.5750    34.7890    63.9210 C.ar         1 137400   0.0000
    21 C7          14.3020    32.7980    62.8040 C.2          1 137400   0.0000
    22 O71         15.4310    33.0460    63.2060 O.co2        1 137400   0.0000
    23 O72         14.0360    31.8140    62.1360 O.co2        1 137400  -1.0000
    24 H5'1        11.4061    28.6164    62.9050 H            1 137400   0.0000
    25 H5'2        11.0972    28.7047    64.5061 H            1 137400   0.0000
    26 H4'          8.7347    28.6483    62.9869 H            1 137400   0.0000
    27 H4           8.9518    29.1052    65.2356 H            1 137400   0.0000
    28 H3'         10.8305    30.5670    62.5660 H            1 137400   0.0000
    29 H6           9.4045    28.7117    61.0416 H            1 137400   0.0000
    30 H2'          8.9302    30.9339    60.6395 H            1 137400   0.0000
    31 H8           7.5470    32.3852    61.6929 H            1 137400   0.0000
    32 H1'1         9.7225    33.2536    61.6709 H            1 137400   0.0000
    33 H1'2        10.3395    32.4965    60.3622 H            1 137400   0.0000
    34 HH          11.9925    31.6268    61.7925 H            1 137400   0.0000
    35 H12          9.9326    34.3081    62.8310 H            1 137400   0.0000
    36 H13         10.5987    36.1616    64.1481 H            1 137400   0.0000
    37 H14         12.8395    36.4779    64.8466 H            1 137400   0.0000
    38 H15         14.5238    34.9165    64.2099 H            1 137400   0.0000
@<TRIPOS>BOND
     1    1    2      ar
     2    1    3      ar
     3    1    4      ar
     4    1    5       1
     5    5    6       1
     6    6    7       1
     7    7    8       1
     8    7    9       1
     9    9   10       1
    10    9   11       1
    11   11   12       1
    12   11   13       1
    13   13   14       1
    14   14   16       1
    15   15   16      ar
    16   15   20      ar
    17   15   21       1
    18   16   17      ar
    19   17   18      ar
    20   18   19      ar
    21   19   20      ar
    22   21   22      ar
    23   21   23      ar
    24   19   37       1
    25   20   38       1
    26    6   24       1
    27    6   25       1
    28    7   26       1
    29    8   27       1
    30    9   28       1
    31   10   29       1
    32   11   30       1
    33   12   31       1
    34   13   32       1
    35   13   33       1
    36   14   34       1
    37   17   35       1
    38   18   36       1
@<TRIPOS>SUBSTRUCTURE
     1 137400      1 GROUP             4 A     137     0 **** 137 A 400
