@<TRIPOS>MOLECULE
3vlj_DDJ_1_ligand
   34    35     1     0     0
SMALL
NO_CHARGES


@<TRIPOS>ATOM
     1 NAA        136.9580   -12.7640    45.7110 N.pl3        1 DDJ801   0.0000
     2 OAB        135.7290   -13.7140    37.2690 O.3          1 DDJ801   0.0000
     3 OAC        134.8760   -14.5300    45.4800 O.3          1 DDJ801   0.0000
     4 CAD        135.4930   -13.5530    39.6340 C.ar         1 DDJ801   0.0000
     5 CAE        134.7400   -14.0480    43.1520 C.ar         1 DDJ801   0.0000
     6 CAF        135.3220   -13.8370    44.3970 C.ar         1 DDJ801   0.0000
     7 CAG        136.4050   -12.9740    44.5200 C.ar         1 DDJ801   0.0000
     8 CAH        135.2460   -13.4070    42.0260 C.ar         1 DDJ801   0.0000
     9 CAI        136.3320   -12.5470    42.1500 C.ar         1 DDJ801   0.0000
    10 CAJ        136.9100   -12.3290    43.3960 C.ar         1 DDJ801   0.0000
    11 CAK        134.9490   -13.8040    38.3790 C.ar         1 DDJ801   0.0000
    12 CAL        134.7050   -13.6760    40.7740 C.ar         1 DDJ801   0.0000
    13 CAM        133.6130   -14.1730    38.2630 C.ar         1 DDJ801   0.0000
    14 CAN        132.8250   -14.2960    39.4010 C.ar         1 DDJ801   0.0000
    15 CAO        133.3710   -14.0490    40.6560 C.ar         1 DDJ801   0.0000
    16 CAP        135.6710   -12.3860    36.7430 C.3          1 DDJ801   0.0000
    17 CAQ        133.7980   -13.8320    46.1070 C.3          1 DDJ801   0.0000
    18 NAR        133.0900   -14.4050    37.0620 N.pl3        1 DDJ801   0.0000
    19 HAA1       137.7370   -12.1430    45.7981 H            1 DDJ801   0.0000
    20 HAA2       136.5949   -13.2271    46.5195 H            1 DDJ801   0.0000
    21 HAD        136.4524   -13.2836    39.7172 H            1 DDJ801   0.0000
    22 HAE        133.9556   -14.6622    43.0659 H            1 DDJ801   0.0000
    23 HAI        136.6977   -12.0848    41.3421 H            1 DDJ801   0.0000
    24 HAJ        137.6890   -11.7082    43.4838 H            1 DDJ801   0.0000
    25 HAN        131.8647   -14.5623    39.3175 H            1 DDJ801   0.0000
    26 HAO        132.8035   -14.1398    41.4743 H            1 DDJ801   0.0000
    27 HAP1       136.2461   -12.3252    35.9272 H            1 DDJ801   0.0000
    28 HAP2       134.7262   -12.1638    36.5022 H            1 DDJ801   0.0000
    29 HAP3       136.0002   -11.7400    37.4317 H            1 DDJ801   0.0000
    30 HAQ1       133.4807   -14.3520    46.9001 H            1 DDJ801   0.0000
    31 HAQ2       134.1125   -12.9303    46.4037 H            1 DDJ801   0.0000
    32 HAQ3       133.0465   -13.7253    45.4560 H            1 DDJ801   0.0000
    33 HAR1       132.1295   -14.6703    36.9777 H            1 DDJ801   0.0000
    34 HAR2       133.6573   -14.3140    36.2435 H            1 DDJ801   0.0000
@<TRIPOS>BOND
     1    1    7       1
     2    2   11       1
     3    2   16       1
     4    3    6       1
     5    3   17       1
     6    4   11      ar
     7    4   12      ar
     8    5    6      ar
     9    5    8      ar
    10    6    7      ar
    11    7   10      ar
    12    8    9      ar
    13    8   12       1
    14    9   10      ar
    15   11   13      ar
    16   12   15      ar
    17   13   14      ar
    18   13   18       1
    19   14   15      ar
    20    1   19       1
    21    1   20       1
    22    4   21       1
    23    5   22       1
    24    9   23       1
    25   10   24       1
    26   14   25       1
    27   15   26       1
    28   16   27       1
    29   16   28       1
    30   16   29       1
    31   17   30       1
    32   17   31       1
    33   17   32       1
    34   18   33       1
    35   18   34       1
@<TRIPOS>SUBSTRUCTURE
     1 DDJ801      1 GROUP             4 A     DDJ     0 **** DDJ A 801
