@<TRIPOS>MOLECULE
2ewn_BTX_1_ligand
   66    70     1     0     0
SMALL
NO_CHARGES


@<TRIPOS>ATOM
     1 P            2.4540    44.5150   -28.8200 P.3          1 BTX501   0.0000
     2 O1P          3.5300    43.6650   -28.1920 O.co2        1 BTX501   0.0000
     3 O2P          1.9770    45.6440   -27.8740 O.co2        1 BTX501  -1.0000
     4 O5'          1.1930    43.5990   -29.3150 O.3          1 BTX501   0.0000
     5 C5'          0.4110    42.8100   -28.4730 C.3          1 BTX501   0.0000
     6 C4'         -0.8740    42.4430   -29.0130 C.3          1 BTX501   0.0000
     7 O4'         -1.2690    43.0230   -30.2260 O.3          1 BTX501   0.0000
     8 C3'         -1.0240    41.0480   -29.3060 C.3          1 BTX501   0.0000
     9 O3'         -0.7540    40.0830   -28.3170 O.3          1 BTX501   0.0000
    10 C2'         -2.4000    41.0140   -29.8710 C.3          1 BTX501   0.0000
    11 O2'         -3.3110    40.9190   -28.8140 O.3          1 BTX501   0.0000
    12 C1'         -2.4690    42.3110   -30.6830 C.3          1 BTX501   0.0000
    13 N9          -2.3660    42.2360   -32.1570 N.pl3        1 BTX501   0.0000
    14 C8          -1.7270    41.2990   -32.9370 C.2          1 BTX501   0.0000
    15 N7          -1.8600    41.6430   -34.2330 N.2          1 BTX501   0.0000
    16 C5          -2.5960    42.7990   -34.2970 C.ar         1 BTX501   0.0000
    17 C6          -2.9840    43.5710   -35.3950 C.ar         1 BTX501   0.0000
    18 N6          -2.6560    43.2090   -36.6540 N.pl3        1 BTX501   0.0000
    19 N1          -3.7520    44.7490   -35.1180 N.ar         1 BTX501   0.0000
    20 C2          -4.0940    45.1440   -33.8190 C.ar         1 BTX501   0.0000
    21 N3          -3.6770    44.3480   -32.7330 N.ar         1 BTX501   0.0000
    22 C4          -2.9180    43.1970   -33.0070 C.ar         1 BTX501   0.0000
    23 CBB          3.8500    45.8570   -30.5400 C.3          1 BTX501   0.0000
    24 OBB          2.8700    45.1050   -30.1150 O.3          1 BTX501   0.0000
    25 CAB          3.9060    46.0640   -32.0320 C.3          1 BTX501   0.0000
    26 C9B          3.8810    44.8890   -33.0130 C.3          1 BTX501   0.0000
    27 C8B          4.9520    45.0580   -34.0830 C.3          1 BTX501   0.0000
    28 C7B          4.4930    44.6480   -35.4770 C.3          1 BTX501   0.0000
    29 C2B          5.4820    44.9420   -36.6160 C.3          1 BTX501   0.0000
    30 S1B          4.9740    44.2550   -38.1980 S.3          1 BTX501   0.0000
    31 C6B          6.5000    44.8070   -38.9220 C.3          1 BTX501   0.0000
    32 C5B          7.5260    44.3720   -37.8630 C.3          1 BTX501   0.0000
    33 N1B          7.9120    42.9520   -37.9790 N.am         1 BTX501   0.0000
    34 C3B          7.6370    42.2930   -36.8230 C.2          1 BTX501   0.0000
    35 O3B          7.8710    41.0660   -36.6060 O.2          1 BTX501   0.0000
    36 N2B          7.0750    43.1360   -35.8900 N.am         1 BTX501   0.0000
    37 C4B          6.9470    44.4730   -36.4300 C.3          1 BTX501   0.0000
    38 H5'1         0.2590    43.3163   -27.6241 H            1 BTX501   0.0000
    39 H5'2         0.9167    41.9704   -28.2744 H            1 BTX501   0.0000
    40 H4'         -1.5642    42.6806   -28.3295 H            1 BTX501   0.0000
    41 H3'         -0.4038    40.8525   -30.0657 H            1 BTX501   0.0000
    42 H5          -0.9096    39.1690   -28.6918 H            1 BTX501   0.0000
    43 H2'         -2.4995    40.2259   -30.4785 H            1 BTX501   0.0000
    44 H7          -3.5709    41.8370   -28.5144 H            1 BTX501   0.0000
    45 H1'         -3.2864    42.8271   -30.4270 H            1 BTX501   0.0000
    46 H9          -1.2424    40.4932   -32.5968 H            1 BTX501   0.0000
    47 H10         -2.9426    43.7743   -37.4275 H            1 BTX501   0.0000
    48 H11         -2.1265    42.3757   -36.8128 H            1 BTX501   0.0000
    49 H12         -4.6253    45.9770   -33.6643 H            1 BTX501   0.0000
    50 HBB1         4.7099    45.4335   -30.2548 H            1 BTX501   0.0000
    51 HBB2         3.7606    46.7541   -30.1072 H            1 BTX501   0.0000
    52 HAB1         4.7530    46.5634   -32.2142 H            1 BTX501   0.0000
    53 HAB2         3.1226    46.6403   -32.2647 H            1 BTX501   0.0000
    54 H9B1         2.9831    44.8462   -33.4511 H            1 BTX501   0.0000
    55 H9B2         4.0484    44.0397   -32.5123 H            1 BTX501   0.0000
    56 H8B1         5.7406    44.4966   -33.8322 H            1 BTX501   0.0000
    57 H8B2         5.2228    46.0203   -34.1098 H            1 BTX501   0.0000
    58 H7B1         3.6418    45.1338   -35.6758 H            1 BTX501   0.0000
    59 H7B2         4.3200    43.6631   -35.4665 H            1 BTX501   0.0000
    60 H2B          5.5082    45.9355   -36.7271 H            1 BTX501   0.0000
    61 H6B1         6.5053    45.7990   -39.0482 H            1 BTX501   0.0000
    62 H6B2         6.6699    44.3584   -39.7995 H            1 BTX501   0.0000
    63 H5B          8.3418    44.9459   -37.9340 H            1 BTX501   0.0000
    64 H1B          8.3179    42.5347   -38.7921 H            1 BTX501   0.0000
    65 H28          6.7950    42.8630   -34.9696 H            1 BTX501   0.0000
    66 H4B          7.4647    45.1299   -35.8819 H            1 BTX501   0.0000
@<TRIPOS>BOND
     1    1    2      ar
     2    1    3      ar
     3    1    4       1
     4    1   24       1
     5    4    5       1
     6    5    6       1
     7    6    7       1
     8    6    8       1
     9    7   12       1
    10    8    9       1
    11    8   10       1
    12   10   11       1
    13   10   12       1
    14   12   13       1
    15   13   14       1
    16   13   22       1
    17   14   15       2
    18   15   16       1
    19   16   17      ar
    20   16   22      ar
    21   17   18       1
    22   17   19      ar
    23   19   20      ar
    24   20   21      ar
    25   21   22      ar
    26   23   24       1
    27   23   25       1
    28   25   26       1
    29   26   27       1
    30   27   28       1
    31   28   29       1
    32   29   30       1
    33   29   37       1
    34   30   31       1
    35   31   32       1
    36   32   33       1
    37   32   37       1
    38   33   34      am
    39   34   35       2
    40   34   36      am
    41   36   37       1
    42   37   66       1
    43    5   38       1
    44    5   39       1
    45    6   40       1
    46    8   41       1
    47    9   42       1
    48   10   43       1
    49   11   44       1
    50   12   45       1
    51   14   46       1
    52   18   47       1
    53   18   48       1
    54   20   49       1
    55   23   50       1
    56   23   51       1
    57   25   52       1
    58   25   53       1
    59   26   54       1
    60   26   55       1
    61   27   56       1
    62   27   57       1
    63   28   58       1
    64   28   59       1
    65   29   60       1
    66   31   61       1
    67   31   62       1
    68   32   63       1
    69   33   64       1
    70   36   65       1
@<TRIPOS>SUBSTRUCTURE
     1 BTX501      1 GROUP             4 A     BTX     0 **** BTX A 501
