@<TRIPOS>MOLECULE
2onf_COA_1_ligand
   80    82     1     0     0
SMALL
NO_CHARGES


@<TRIPOS>ATOM
     1 N1A         -1.0930     2.6010     6.7290 N.ar         1 COA140   0.0000
     2 C2A         -0.4120     2.2880     5.5840 C.ar         1 COA140   0.0000
     3 N3A          0.2470     3.2100     4.8290 N.ar         1 COA140   0.0000
     4 C4A          0.2230     4.5310     5.2780 C.ar         1 COA140   0.0000
     5 C5A         -0.4620     4.8790     6.4390 C.ar         1 COA140   0.0000
     6 C6A         -1.1060     3.8730     7.1770 C.ar         1 COA140   0.0000
     7 N6A         -1.9490     4.1390     8.1640 N.pl3        1 COA140   0.0000
     8 N7A         -0.3210     6.2290     6.6240 N.2          1 COA140   0.0000
     9 C8A          0.3930     6.7390     5.5910 C.2          1 COA140   0.0000
    10 N9A          0.7460     5.6910     4.7600 N.pl3        1 COA140   0.0000
    11 C1B          1.5120     5.7600     3.5560 C.3          1 COA140   0.0000
    12 C2B          0.7240     6.4030     2.4300 C.3          1 COA140   0.0000
    13 O2B         -0.1500     5.5870     1.6740 O.3          1 COA140   0.0000
    14 C3B          1.8780     6.8870     1.5830 C.3          1 COA140   0.0000
    15 O3B          2.3380     5.8480     0.7170 O.3          1 COA140   0.0000
    16 P3B          3.1830     6.0470    -0.6250 P.3          1 COA140   0.0000
    17 O7A          3.4130     4.6710    -1.1790 O.co2        1 COA140   0.0000
    18 O8A          2.4110     6.9860    -1.5890 O.co2        1 COA140  -1.0000
    19 O9A          4.5100     6.6390    -0.2570 O.co2        1 COA140  -1.0000
    20 C4B          2.9300     7.2840     2.5990 C.3          1 COA140   0.0000
    21 O4B          2.6130     6.6120     3.8060 O.3          1 COA140   0.0000
    22 C5B          2.9690     8.7890     2.9230 C.3          1 COA140   0.0000
    23 O5B          1.7220     9.1770     3.4550 O.3          1 COA140   0.0000
    24 P1A          0.8950    10.4160     2.7750 P.3          1 COA140   0.0000
    25 O1A         -0.2530    10.6880     3.6880 O.co2        1 COA140   0.0000
    26 O2A          0.7630    10.1050     1.3130 O.co2        1 COA140  -1.0000
    27 O3A          1.9580    11.6540     2.8050 O.3          1 COA140   0.0000
    28 P2A          2.3140    12.6970     3.9690 P.3          1 COA140   0.0000
    29 O4A          1.1160    13.0700     4.8040 O.co2        1 COA140   0.0000
    30 O5A          3.0440    13.8110     3.2080 O.co2        1 COA140  -1.0000
    31 O6A          3.4330    11.8970     4.8430 O.3          1 COA140   0.0000
    32 CBP          4.4170    11.0090     6.8640 C.3          1 COA140   0.0000
    33 CCP          3.1330    11.1800     6.0350 C.3          1 COA140   0.0000
    34 CDP          5.4620    10.4640     5.8940 C.3          1 COA140   0.0000
    35 CEP          4.1710    10.0070     7.9790 C.3          1 COA140   0.0000
    36 CAP          4.8030    12.4130     7.3540 C.3          1 COA140   0.0000
    37 OAP          3.7640    13.0070     8.1180 O.3          1 COA140   0.0000
    38 C9P          6.0730    12.4030     8.1660 C.2          1 COA140   0.0000
    39 O9P          7.2700    12.2100     7.5330 O.2          1 COA140   0.0000
    40 N8P          6.0480    12.5830     9.4930 N.am         1 COA140   0.0000
    41 C7P          7.2300    12.4610    10.3080 C.3          1 COA140   0.0000
    42 C6P          7.4150    11.0140    10.7990 C.3          1 COA140   0.0000
    43 C5P          8.4550    10.9750    11.8970 C.2          1 COA140   0.0000
    44 O5P          8.1140    11.0890    13.0550 O.2          1 COA140   0.0000
    45 N4P          9.7140    10.7970    11.5380 N.am         1 COA140   0.0000
    46 C3P         10.7900    10.8380    12.4960 C.3          1 COA140   0.0000
    47 C2P         11.3470    12.2440    12.6680 C.3          1 COA140   0.0000
    48 S1P         12.9100    12.1890    13.6390 S.3          1 COA140   0.0000
    49 H2A         -0.3976     1.3334     5.2865 H            1 COA140   0.0000
    50 H6A1        -2.0042     5.0645     8.5386 H            1 COA140   0.0000
    51 H6A2        -2.5300     3.4142     8.5343 H            1 COA140   0.0000
    52 H8A          0.6237     7.7023     5.4539 H            1 COA140   0.0000
    53 H1B          1.8270     4.8495     3.2881 H            1 COA140   0.0000
    54 H2B          0.2196     7.1901     2.7850 H            1 COA140   0.0000
    55 H7          -0.5990     6.1401     0.9722 H            1 COA140   0.0000
    56 H3B          1.6002     7.6839     1.0465 H            1 COA140   0.0000
    57 H4B          3.8303     6.9884     2.2795 H            1 COA140   0.0000
    58 H5B1         3.1529     9.3071     2.0876 H            1 COA140   0.0000
    59 H5B2         3.6897     8.9692     3.5924 H            1 COA140   0.0000
    60 HCP1         2.7653    10.2803     5.7997 H            1 COA140   0.0000
    61 HCP2         2.4564    11.6875     6.5685 H            1 COA140   0.0000
    62 HDP1         6.3273    10.3301     6.3770 H            1 COA140   0.0000
    63 HDP2         5.1486     9.5899     5.5229 H            1 COA140   0.0000
    64 HDP3         5.5947    11.1150     5.1466 H            1 COA140   0.0000
    65 HEP1         5.0061     9.8961     8.5178 H            1 COA140   0.0000
    66 HEP2         3.4352    10.3390     8.5692 H            1 COA140   0.0000
    67 HEP3         3.9097     9.1262     7.5840 H            1 COA140   0.0000
    68 HAP          4.9581    12.9864     6.5496 H            1 COA140   0.0000
    69 H21          3.4701    13.8556     7.6780 H            1 COA140   0.0000
    70 H8P          5.1792    12.8098     9.9332 H            1 COA140   0.0000
    71 H7P1         7.1454    13.0665    11.0993 H            1 COA140   0.0000
    72 H7P2         8.0284    12.7276     9.7681 H            1 COA140   0.0000
    73 H6P1         7.7152    10.4405    10.0368 H            1 COA140   0.0000
    74 H6P2         6.5454    10.6697    11.1529 H            1 COA140   0.0000
    75 H4P          9.9261    10.6292    10.5753 H            1 COA140   0.0000
    76 H3P1        11.5244    10.2359    12.1827 H            1 COA140   0.0000
    77 H3P2        10.4486    10.5157    13.3789 H            1 COA140   0.0000
    78 H2P1        10.6773    12.8086    13.1505 H            1 COA140   0.0000
    79 H2P2        11.5301    12.6398    11.7681 H            1 COA140   0.0000
    80 H1P         13.1178    11.2417    13.8828 H            1 COA140   0.0000
@<TRIPOS>BOND
     1    1    2      ar
     2    1    6      ar
     3    2    3      ar
     4    3    4      ar
     5    4    5      ar
     6    4   10       1
     7    5    6      ar
     8    5    8       1
     9    6    7       1
    10    8    9       2
    11    9   10       1
    12   10   11       1
    13   11   12       1
    14   11   21       1
    15   12   13       1
    16   12   14       1
    17   14   15       1
    18   14   20       1
    19   15   16       1
    20   16   17      ar
    21   16   18      ar
    22   16   19      ar
    23   20   21       1
    24   20   22       1
    25   22   23       1
    26   23   24       1
    27   24   25      ar
    28   24   26      ar
    29   24   27       1
    30   27   28       1
    31   28   29      ar
    32   28   30      ar
    33   28   31       1
    34   31   33       1
    35   32   33       1
    36   32   34       1
    37   32   35       1
    38   32   36       1
    39   36   37       1
    40   36   38       1
    41   38   39       2
    42   38   40      am
    43   40   41       1
    44   41   42       1
    45   42   43       1
    46   43   44       2
    47   43   45      am
    48   45   46       1
    49   46   47       1
    50   47   48       1
    51    2   49       1
    52    7   50       1
    53    7   51       1
    54    9   52       1
    55   11   53       1
    56   12   54       1
    57   13   55       1
    58   14   56       1
    59   48   80       1
    60   47   79       1
    61   20   57       1
    62   22   58       1
    63   22   59       1
    64   47   78       1
    65   46   77       1
    66   33   60       1
    67   33   61       1
    68   34   62       1
    69   34   63       1
    70   34   64       1
    71   35   65       1
    72   35   66       1
    73   35   67       1
    74   36   68       1
    75   37   69       1
    76   40   70       1
    77   41   71       1
    78   41   72       1
    79   42   73       1
    80   42   74       1
    81   45   75       1
    82   46   76       1
@<TRIPOS>SUBSTRUCTURE
     1 COA140      1 GROUP             4 B     COA     0 **** COA B 140
