@<TRIPOS>MOLECULE
1ci7_UMP_2_ligand
   31    32     1     0     0
SMALL
NO_CHARGES


@<TRIPOS>ATOM
     1 N1          85.7760   -22.3030    28.8100 N.pl3        1 UMP765   0.0000
     2 C2          85.4980   -21.1990    29.6800 C.2          1 UMP765   0.0000
     3 N3          84.8740   -21.4960    30.9090 N.pl3        1 UMP765   0.0000
     4 C4          84.5010   -22.7920    31.3290 C.2          1 UMP765   0.0000
     5 C5          84.8100   -23.8640    30.3570 C.2          1 UMP765   0.0000
     6 C6          85.4470   -23.5860    29.1160 C.2          1 UMP765   0.0000
     7 O2          85.7670   -20.0350    29.3840 O.2          1 UMP765   0.0000
     8 O4          83.9730   -22.9910    32.4280 O.2          1 UMP765   0.0000
     9 C1'         86.5010   -22.0540    27.5000 C.3          1 UMP765   0.0000
    10 C2'         87.9120   -21.4790    27.6620 C.3          1 UMP765   0.0000
    11 C3'         88.5030   -21.6190    26.2660 C.3          1 UMP765   0.0000
    12 C4'         88.1470   -23.0320    25.8030 C.3          1 UMP765   0.0000
    13 O3'         87.8350   -20.7060    25.3600 O.3          1 UMP765   0.0000
    14 O4'         86.7680   -23.1200    26.4330 O.3          1 UMP765   0.0000
    15 C5'         89.0750   -24.0700    26.4440 C.3          1 UMP765   0.0000
    16 O5'         90.4190   -23.9980    25.9130 O.3          1 UMP765   0.0000
    17 P           91.3530   -25.2480    26.0450 P.3          1 UMP765   0.0000
    18 OP1         92.5460   -24.8920    26.8030 O.co2        1 UMP765   0.0000
    19 OP2         90.7060   -26.3830    26.7220 O.co2        1 UMP765  -1.0000
    20 OP3         91.8050   -25.6840    24.7210 O.co2        1 UMP765  -1.0000
    21 H1          84.6817   -20.7344    31.5278 H            1 UMP765   0.0000
    22 H2          84.5648   -24.8079    30.5782 H            1 UMP765   0.0000
    23 H3          85.6506   -24.3264    28.4755 H            1 UMP765   0.0000
    24 H1'         85.9751   -21.3406    27.0369 H            1 UMP765   0.0000
    25 H2'1        88.4395   -22.0044    28.3297 H            1 UMP765   0.0000
    26 H2'2        87.8789   -20.5200    27.9435 H            1 UMP765   0.0000
    27 H3'         89.4923   -21.4729    26.2703 H            1 UMP765   0.0000
    28 H4'         88.1170   -23.1108    24.8066 H            1 UMP765   0.0000
    29 H9          87.9601   -19.7671    25.6807 H            1 UMP765   0.0000
    30 H5'1        88.7074   -24.9833    26.2689 H            1 UMP765   0.0000
    31 H5'2        89.1085   -23.9076    27.4302 H            1 UMP765   0.0000
@<TRIPOS>BOND
     1    1    2       1
     2    1    6       1
     3    1    9       1
     4    2    3       1
     5    2    7       2
     6    3    4       1
     7    4    5       1
     8    4    8       2
     9    5    6       2
    10    9   10       1
    11    9   14       1
    12   10   11       1
    13   11   12       1
    14   11   13       1
    15   12   14       1
    16   12   15       1
    17   15   16       1
    18   16   17       1
    19   17   18      ar
    20   17   19      ar
    21   17   20      ar
    22    3   21       1
    23    5   22       1
    24    6   23       1
    25    9   24       1
    26   10   25       1
    27   10   26       1
    28   11   27       1
    29   12   28       1
    30   13   29       1
    31   15   30       1
    32   15   31       1
@<TRIPOS>SUBSTRUCTURE
     1 UMP765      1 GROUP             4 B     UMP     0 **** UMP B 765
