@<TRIPOS>MOLECULE
1vft_DCS_2_ligand
   34    35     1     0     0
SMALL
NO_CHARGES


@<TRIPOS>ATOM
     1 N1          11.5640     1.1550   -19.3820 N.ar         1 DCS1401   0.0000
     2 C2          12.9460     1.3180   -19.2250 C.ar         1 DCS1401   0.0000
     3 C2A         13.8980     1.1900   -20.3920 C.3          1 DCS1401   0.0000
     4 C3          13.4100     1.6030   -17.9750 C.ar         1 DCS1401   0.0000
     5 O3          14.7230     1.7940   -17.7750 O.3          1 DCS1401   0.0000
     6 C4          12.4860     1.7120   -16.9000 C.ar         1 DCS1401   0.0000
     7 C4A         12.9740     1.9530   -15.5110 C.3          1 DCS1401   0.0000
     8 C5          11.0990     1.5290   -17.1600 C.ar         1 DCS1401   0.0000
     9 C6          10.6770     1.2590   -18.3810 C.ar         1 DCS1401   0.0000
    10 C5A         10.0440     1.6370   -16.0750 C.3          1 DCS1401   0.0000
    11 O4P          9.8930     3.0030   -15.6870 O.3          1 DCS1401   0.0000
    12 P            8.9210     3.4990   -14.5400 P.3          1 DCS1401   0.0000
    13 O1P          7.5750     3.1220   -14.9520 O.co2        1 DCS1401   0.0000
    14 O2P          9.3370     2.8200   -13.3200 O.co2        1 DCS1401  -1.0000
    15 O3P          9.0840     4.9470   -14.4470 O.co2        1 DCS1401  -1.0000
    16 N           13.7680     3.2270   -15.4480 N.pl3        1 DCS1401   0.0000
    17 CA          14.9160     3.3140   -14.6510 C.2          1 DCS1401   0.0000
    18 C           16.1770     2.7160   -14.9890 C.2          1 DCS1401   0.0000
    19 O           16.3530     1.5890   -15.7320 O.2          1 DCS1401   0.0000
    20 ND          17.1430     3.3940   -14.4210 N.pl3        1 DCS1401   0.0000
    21 OG          16.5770     4.4210   -13.6980 O.2          1 DCS1401   0.0000
    22 CB          15.2330     4.3700   -13.8330 C.2          1 DCS1401   0.0000
    23 H2A1        14.8348     1.3400   -20.0760 H            1 DCS1401   0.0000
    24 H2A2        13.8216     0.2739   -20.7855 H            1 DCS1401   0.0000
    25 H2A3        13.6674     1.8715   -21.0866 H            1 DCS1401   0.0000
    26 H4          15.0639     2.0031   -16.8585 H            1 DCS1401   0.0000
    27 H4A1        13.5541     1.1890   -15.2284 H            1 DCS1401   0.0000
    28 H4A2        12.1902     2.0225   -14.8939 H            1 DCS1401   0.0000
    29 H7           9.7011     1.1326   -18.5590 H            1 DCS1401   0.0000
    30 H5A1        10.3248     1.0952   -15.2828 H            1 DCS1401   0.0000
    31 H5A2         9.1724     1.2917   -16.4229 H            1 DCS1401   0.0000
    32 H10         13.4737     4.0206   -15.9805 H            1 DCS1401   0.0000
    33 HD          18.1209     3.2000   -14.4986 H            1 DCS1401   0.0000
    34 HB          14.5793     4.9964   -13.4083 H            1 DCS1401   0.0000
@<TRIPOS>BOND
     1    1    2      ar
     2    1    9      ar
     3    2    3       1
     4    2    4      ar
     5    4    5       1
     6    4    6      ar
     7    6    7       1
     8    6    8      ar
     9    7   16       1
    10    8    9      ar
    11    8   10       1
    12   10   11       1
    13   11   12       1
    14   12   13      ar
    15   12   14      ar
    16   12   15      ar
    17   16   17       1
    18   17   18       1
    19   17   22       2
    20   18   19       2
    21   18   20       1
    22   20   21       1
    23   21   22       1
    24    3   23       1
    25    3   24       1
    26    3   25       1
    27    5   26       1
    28    7   27       1
    29    7   28       1
    30    9   29       1
    31   10   30       1
    32   10   31       1
    33   22   34       1
    34   20   33       1
    35   16   32       1
@<TRIPOS>SUBSTRUCTURE
     1 DCS1401     1 GROUP             4 B     DCS     0 **** DCS B1401
