@<TRIPOS>MOLECULE
1v9n_NDP_1_ligand
   73    77     1     0     0
SMALL
NO_CHARGES


@<TRIPOS>ATOM
     1 PA          19.9360    67.3910    94.6630 P.3          1 NDP401   0.0000
     2 O1A         20.1810    67.7140    93.2780 O.co2        1 NDP401   0.0000
     3 O2A         21.0340    67.2340    95.6800 O.co2        1 NDP401  -1.0000
     4 O5B         18.8530    68.4900    95.2200 O.3          1 NDP401   0.0000
     5 C5B         18.3610    68.4400    96.5720 C.3          1 NDP401   0.0000
     6 C4B         17.3540    69.6000    96.6880 C.3          1 NDP401   0.0000
     7 O4B         18.1230    70.6960    97.2150 O.3          1 NDP401   0.0000
     8 C3B         16.7020    70.1130    95.4340 C.3          1 NDP401   0.0000
     9 O3B         15.3230    70.4640    95.7590 O.3          1 NDP401   0.0000
    10 C2B         17.4670    71.3160    95.0090 C.3          1 NDP401   0.0000
    11 O2B         16.7840    72.2900    94.2010 O.3          1 NDP401   0.0000
    12 C1B         17.9750    71.8050    96.3300 C.3          1 NDP401   0.0000
    13 N9A         19.3150    72.4530    96.2930 N.pl3        1 NDP401   0.0000
    14 C8A         20.4640    72.1120    95.5240 C.2          1 NDP401   0.0000
    15 N7A         21.4670    72.9160    95.7930 N.2          1 NDP401   0.0000
    16 C5A         21.0190    73.7980    96.7340 C.ar         1 NDP401   0.0000
    17 C6A         21.5970    74.8980    97.4450 C.ar         1 NDP401   0.0000
    18 N6A         22.8710    75.2430    97.2280 N.pl3        1 NDP401   0.0000
    19 N1A         20.8400    75.6000    98.3580 N.ar         1 NDP401   0.0000
    20 C2A         19.5330    75.2510    98.5910 C.ar         1 NDP401   0.0000
    21 N3A         18.9000    74.2300    97.9770 N.ar         1 NDP401   0.0000
    22 C4A         19.7020    73.5350    97.0510 C.ar         1 NDP401   0.0000
    23 O3          19.0230    66.1260    94.8530 O.3          1 NDP401   0.0000
    24 PN          19.0780    64.5660    94.5710 P.3          1 NDP401   0.0000
    25 O1N         18.9410    63.9350    95.8800 O.co2        1 NDP401   0.0000
    26 O2N         20.3840    64.4030    93.8460 O.co2        1 NDP401  -1.0000
    27 O5D         17.8080    64.3830    93.6300 O.3          1 NDP401   0.0000
    28 C5D         17.8360    63.5790    92.4170 C.3          1 NDP401   0.0000
    29 C4D         16.4240    63.5900    91.7150 C.3          1 NDP401   0.0000
    30 O4D         16.0800    62.2360    91.4820 O.3          1 NDP401   0.0000
    31 C3D         15.2400    64.1800    92.5210 C.3          1 NDP401   0.0000
    32 O3D         14.4460    64.9710    91.6270 O.3          1 NDP401   0.0000
    33 C2D         14.5060    62.9830    93.1000 C.3          1 NDP401   0.0000
    34 O2D         13.1370    63.2620    93.3050 O.3          1 NDP401   0.0000
    35 C1D         14.8000    61.9050    92.0240 C.3          1 NDP401   0.0000
    36 N1N         14.8500    60.5150    92.5520 N.ar         1 NDP401   1.0000
    37 C2N         13.8390    59.6270    92.0890 C.ar         1 NDP401   0.0000
    38 C3N         13.8860    58.2620    92.5920 C.ar         1 NDP401   0.0000
    39 C7N         12.8780    57.2950    92.1450 C.2          1 NDP401   0.0000
    40 O7N         12.8560    56.1170    92.5220 O.2          1 NDP401   0.0000
    41 N7N         11.9010    57.6720    91.2760 N.am         1 NDP401   0.0000
    42 C4N         14.9310    57.9080    93.4990 C.ar         1 NDP401   0.0000
    43 C5N         15.9040    58.7940    93.9420 C.ar         1 NDP401   0.0000
    44 C6N         15.8720    60.1030    93.4660 C.ar         1 NDP401   0.0000
    45 P2B         16.9060    72.4470    92.6600 P.3          1 NDP401   0.0000
    46 O1X         16.9660    73.9090    92.5020 O.co2        1 NDP401   0.0000
    47 O2X         15.6980    71.8720    91.9920 O.co2        1 NDP401  -1.0000
    48 O3X         18.1790    71.7640    92.1700 O.co2        1 NDP401  -1.0000
    49 H5B1        19.1114    68.5626    97.2215 H            1 NDP401   0.0000
    50 H5B2        17.9083    67.5657    96.7468 H            1 NDP401   0.0000
    51 H4B         16.6443    69.3519    97.3474 H            1 NDP401   0.0000
    52 H3B         16.7247    69.4147    94.7185 H            1 NDP401   0.0000
    53 H5          15.3168    71.1702    96.4669 H            1 NDP401   0.0000
    54 H2B         18.2572    70.9967    94.4859 H            1 NDP401   0.0000
    55 H1B         17.3127    72.4462    96.7176 H            1 NDP401   0.0000
    56 H8A         20.5021    71.3598    94.8662 H            1 NDP401   0.0000
    57 H6A1        23.2726    76.0117    97.7258 H            1 NDP401   0.0000
    58 H6A2        23.4219    74.7322    96.5680 H            1 NDP401   0.0000
    59 H2A         19.0171    75.7879    99.2585 H            1 NDP401   0.0000
    60 H5D1        18.0797    62.6379    92.6514 H            1 NDP401   0.0000
    61 H5D2        18.5185    63.9536    91.7895 H            1 NDP401   0.0000
    62 H4D         16.4957    64.0668    90.8389 H            1 NDP401   0.0000
    63 H3D         15.5881    64.7541    93.2621 H            1 NDP401   0.0000
    64 H16         13.5170    64.6026    91.5916 H            1 NDP401   0.0000
    65 H2D         14.9282    62.7168    93.9666 H            1 NDP401   0.0000
    66 H18         13.0210    64.2356    93.5014 H            1 NDP401   0.0000
    67 H1D         14.1101    61.9606    91.3022 H            1 NDP401   0.0000
    68 H2N         13.1309    59.9262    91.4494 H            1 NDP401   0.0000
    69 H7N1        11.2164    57.0082    90.9747 H            1 NDP401   0.0000
    70 H7N2        11.8676    58.6128    90.9387 H            1 NDP401   0.0000
    71 H4N         14.9638    56.9666    93.8348 H            1 NDP401   0.0000
    72 H5N         16.6099    58.5000    94.5864 H            1 NDP401   0.0000
    73 H6N         16.5663    60.7580    93.7642 H            1 NDP401   0.0000
@<TRIPOS>BOND
     1    1    2      ar
     2    1    3      ar
     3    1    4       1
     4    1   23       1
     5    4    5       1
     6    5    6       1
     7    6    7       1
     8    6    8       1
     9    7   12       1
    10    8    9       1
    11    8   10       1
    12   10   11       1
    13   10   12       1
    14   11   45       1
    15   12   13       1
    16   13   14       1
    17   13   22       1
    18   14   15       2
    19   15   16       1
    20   16   17      ar
    21   16   22      ar
    22   17   18       1
    23   17   19      ar
    24   19   20      ar
    25   20   21      ar
    26   21   22      ar
    27   23   24       1
    28   24   25      ar
    29   24   26      ar
    30   24   27       1
    31   27   28       1
    32   28   29       1
    33   29   30       1
    34   29   31       1
    35   30   35       1
    36   31   32       1
    37   31   33       1
    38   33   34       1
    39   33   35       1
    40   35   36       1
    41   36   37      ar
    42   36   44      ar
    43   37   38      ar
    44   38   39       1
    45   38   42      ar
    46   39   40       2
    47   39   41      am
    48   42   43      ar
    49   43   44      ar
    50   45   46      ar
    51   45   47      ar
    52   45   48      ar
    53   43   72       1
    54    5   49       1
    55    5   50       1
    56    6   51       1
    57    8   52       1
    58    9   53       1
    59   10   54       1
    60   12   55       1
    61   14   56       1
    62   18   57       1
    63   18   58       1
    64   20   59       1
    65   44   73       1
    66   28   60       1
    67   28   61       1
    68   29   62       1
    69   31   63       1
    70   32   64       1
    71   33   65       1
    72   34   66       1
    73   35   67       1
    74   37   68       1
    75   41   69       1
    76   41   70       1
    77   42   71       1
@<TRIPOS>SUBSTRUCTURE
     1 NDP401      1 GROUP             4 A     NDP     0 **** NDP A 401
