@<TRIPOS>MOLECULE
4y12_AGS_1_ligand
   43    45     1     0     0
SMALL
NO_CHARGES


@<TRIPOS>ATOM
     1 PG           4.4860     4.4000   -31.8480 P.3          1 AGS501   0.0000
     2 S1G          6.1060     3.4170   -32.0710 S.2          1 AGS501   0.0000
     3 O2G          3.6060     3.3960   -31.2370 O.co2        1 AGS501  -1.0000
     4 O3G          3.6530     4.5840   -33.1600 O.co2        1 AGS501  -1.0000
     5 PB           3.4520     7.0900   -31.3560 P.3          1 AGS501   0.0000
     6 O1B          3.5040     7.0640   -32.8200 O.co2        1 AGS501   0.0000
     7 O2B          3.9820     8.4850   -30.9680 O.co2        1 AGS501  -1.0000
     8 O3B          4.3030     5.8150   -30.8880 O.3          1 AGS501   0.0000
     9 PA           1.0770     6.6780   -29.6990 P.3          1 AGS501   0.0000
    10 O1A          0.5030     5.3230   -29.8360 O.co2        1 AGS501   0.0000
    11 O2A          2.0760     6.7980   -28.5160 O.co2        1 AGS501  -1.0000
    12 O3A          1.8950     7.0280   -31.0170 O.3          1 AGS501   0.0000
    13 O5'          0.0250     7.8850   -29.5470 O.3          1 AGS501   0.0000
    14 C5'          0.3750     9.2640   -29.7540 C.3          1 AGS501   0.0000
    15 C4'         -0.7690    10.1420   -29.3100 C.3          1 AGS501   0.0000
    16 O4'         -1.9660     9.7850   -30.0460 O.3          1 AGS501   0.0000
    17 C3'         -1.1590    10.0180   -27.8430 C.3          1 AGS501   0.0000
    18 O3'         -0.3820    10.8230   -26.9650 O.3          1 AGS501   0.0000
    19 C2'         -2.6200    10.4550   -27.8630 C.3          1 AGS501   0.0000
    20 O2'         -2.7330    11.8800   -27.8330 O.3          1 AGS501   0.0000
    21 C1'         -3.0990     9.8390   -29.1880 C.3          1 AGS501   0.0000
    22 N9          -3.6480     8.4870   -29.0420 N.pl3        1 AGS501   0.0000
    23 C8          -3.0280     7.2980   -29.3300 C.2          1 AGS501   0.0000
    24 N7          -3.7440     6.2360   -29.0430 N.2          1 AGS501   0.0000
    25 C5          -4.9220     6.7620   -28.5370 C.ar         1 AGS501   0.0000
    26 C6          -6.0920     6.1550   -28.0430 C.ar         1 AGS501   0.0000
    27 N6          -6.2590     4.8320   -27.9640 N.pl3        1 AGS501   0.0000
    28 N1          -7.0790     6.9620   -27.5970 N.ar         1 AGS501   0.0000
    29 C2          -6.9010     8.2910   -27.6490 C.ar         1 AGS501   0.0000
    30 N3          -5.8450     8.9800   -28.1010 N.ar         1 AGS501   0.0000
    31 C4          -4.8790     8.1480   -28.5290 C.ar         1 AGS501   0.0000
    32 H5'1         0.5583     9.4199   -30.7246 H            1 AGS501   0.0000
    33 H5'2         1.1917     9.4848   -29.2209 H            1 AGS501   0.0000
    34 H4'         -0.5406    11.0958   -29.5053 H            1 AGS501   0.0000
    35 H3'         -1.0996     9.0606   -27.5604 H            1 AGS501   0.0000
    36 H5           0.2953    11.3347   -27.4936 H            1 AGS501   0.0000
    37 H2'         -3.1141    10.0509   -27.0932 H            1 AGS501   0.0000
    38 H7          -2.2728    12.2678   -28.6317 H            1 AGS501   0.0000
    39 H1'         -3.7923    10.4334   -29.5955 H            1 AGS501   0.0000
    40 H9          -2.1105     7.2448   -29.7242 H            1 AGS501   0.0000
    41 H10         -7.1130     4.4564   -27.6039 H            1 AGS501   0.0000
    42 H11         -5.5300     4.2172   -28.2650 H            1 AGS501   0.0000
    43 H12         -7.6603     8.8422   -27.3031 H            1 AGS501   0.0000
@<TRIPOS>BOND
     1    1    2       2
     2    1    3      ar
     3    1    4      ar
     4    1    8       1
     5    5    6      ar
     6    5    7      ar
     7    5    8       1
     8    5   12       1
     9    9   10      ar
    10    9   11      ar
    11    9   12       1
    12    9   13       1
    13   13   14       1
    14   14   15       1
    15   15   16       1
    16   15   17       1
    17   16   21       1
    18   17   18       1
    19   17   19       1
    20   19   20       1
    21   19   21       1
    22   21   22       1
    23   22   23       1
    24   22   31       1
    25   23   24       2
    26   24   25       1
    27   25   26      ar
    28   25   31      ar
    29   26   27       1
    30   26   28      ar
    31   28   29      ar
    32   29   30      ar
    33   30   31      ar
    34   29   43       1
    35   27   42       1
    36   27   41       1
    37   23   40       1
    38   14   32       1
    39   14   33       1
    40   15   34       1
    41   17   35       1
    42   18   36       1
    43   19   37       1
    44   20   38       1
    45   21   39       1
@<TRIPOS>SUBSTRUCTURE
     1 AGS501      1 GROUP             4 A     AGS     0 **** AGS A 501
