@<TRIPOS>MOLECULE
5dro_ZH2_1_ligand
   46    47     1     0     0
SMALL
NO_CHARGES


@<TRIPOS>ATOM
     1 C10        -30.0170     6.2110    19.3970 C.ar         1 ZH2402   0.0000
     2 C13        -32.0540     9.3920    19.8060 C.1          1 ZH2402   0.0000
     3 C15        -33.5070    11.5660    19.1080 C.1          1 ZH2402   0.0000
     4 C17        -35.2660    13.5150    18.3250 C.ar         1 ZH2402   0.0000
     5 C20        -37.0670    15.4700    17.5480 C.ar         1 ZH2402   0.0000
     6 C22        -35.8010    15.4620    17.0090 C.ar         1 ZH2402   0.0000
     7 C24        -31.2910     7.5980    21.4360 C.ar         1 ZH2402   0.0000
     8 C26        -29.3400     1.2490    20.3640 C.3          1 ZH2402   0.0000
     9 C28        -30.4420     1.3480    19.5030 C.3          1 ZH2402   0.0000
    10 O01        -27.7930     1.9270    18.0570 O.2          1 ZH2402   0.0000
    11 C02        -27.5360     1.9370    19.2540 C.2          1 ZH2402   0.0000
    12 N03        -26.2220     1.6770    19.6660 N.am         1 ZH2402   0.0000
    13 O04        -25.2750     1.4120    18.7570 O.3          1 ZH2402  -1.0000
    14 C05        -28.4980     2.2120    20.2140 C.3          1 ZH2402   0.0000
    15 N06        -29.1300     3.3950    19.9620 N.am         1 ZH2402   0.0000
    16 C07        -29.2460     4.4060    21.0050 C.2          1 ZH2402   0.0000
    17 O08        -28.7940     4.2040    22.1020 O.2          1 ZH2402   0.0000
    18 C09        -29.9800     5.7260    20.6980 C.ar         1 ZH2402   0.0000
    19 C11        -30.6930     7.4000    19.1190 C.ar         1 ZH2402   0.0000
    20 C12        -31.3220     8.0890    20.1300 C.ar         1 ZH2402   0.0000
    21 C14        -32.6450    10.4020    19.5190 C.1          1 ZH2402   0.0000
    22 C16        -34.2770    12.4510    18.7490 C.1          1 ZH2402   0.0000
    23 C18        -36.5310    13.5230    18.8640 C.ar         1 ZH2402   0.0000
    24 C19        -37.4370    14.4930    18.4840 C.ar         1 ZH2402   0.0000
    25 N21        -37.9800    16.4520    17.1630 N.pl3        1 ZH2402   0.0000
    26 C23        -34.8970    14.4940    17.3880 C.ar         1 ZH2402   0.0000
    27 C25        -30.6200     6.4140    21.7140 C.ar         1 ZH2402   0.0000
    28 O27        -28.7470     0.0690    20.1970 O.3          1 ZH2402   0.0000
    29 H1         -29.5607     5.7098    18.6618 H            1 ZH2402   0.0000
    30 H2         -35.5371    16.1589    16.3421 H            1 ZH2402   0.0000
    31 H3         -31.7509     8.0975    22.1701 H            1 ZH2402   0.0000
    32 H4         -29.6826     1.2875    21.3027 H            1 ZH2402   0.0000
    33 H5         -31.0598     0.5780    19.6624 H            1 ZH2402   0.0000
    34 H6         -30.9259     2.2054    19.6782 H            1 ZH2402   0.0000
    35 H7         -30.1263     1.3312    18.5543 H            1 ZH2402   0.0000
    36 H8         -25.9915     1.6894    20.6390 H            1 ZH2402   0.0000
    37 H9         -28.0183     2.3178    21.0850 H            1 ZH2402   0.0000
    38 H10        -29.5159     3.5691    19.0560 H            1 ZH2402   0.0000
    39 H11        -30.7202     7.7517    18.1833 H            1 ZH2402   0.0000
    40 H12        -36.7947    12.8263    19.5311 H            1 ZH2402   0.0000
    41 H13        -38.3569    14.4991    18.8760 H            1 ZH2402   0.0000
    42 H14        -38.9006    16.4596    17.5536 H            1 ZH2402   0.0000
    43 H15        -37.7139    17.1484    16.4965 H            1 ZH2402   0.0000
    44 H16        -33.9772    14.4884    16.9956 H            1 ZH2402   0.0000
    45 H17        -30.5994     6.0587    22.6485 H            1 ZH2402   0.0000
    46 H18        -28.4375    -0.0175    19.2501 H            1 ZH2402   0.0000
@<TRIPOS>BOND
     1    1   18      ar
     2    1   19      ar
     3    2   20       1
     4    2   21       3
     5    3   21       1
     6    3   22       3
     7    4   22       1
     8    4   23      ar
     9    4   26      ar
    10    5    6      ar
    11    5   24      ar
    12    5   25       1
    13    6   26      ar
    14    7   20      ar
    15    7   27      ar
    16    8    9       1
    17    8   14       1
    18    8   28       1
    19   10   11       2
    20   11   12      am
    21   11   14       1
    22   12   13       1
    23   14   15       1
    24   15   16      am
    25   16   17       2
    26   16   18       1
    27   18   27      ar
    28   19   20      ar
    29   23   24      ar
    30    1   29       1
    31    6   30       1
    32    7   31       1
    33    8   32       1
    34    9   33       1
    35    9   34       1
    36    9   35       1
    37   12   36       1
    38   28   46       1
    39   14   37       1
    40   15   38       1
    41   19   39       1
    42   23   40       1
    43   24   41       1
    44   25   42       1
    45   25   43       1
    46   26   44       1
    47   27   45       1
@<TRIPOS>SUBSTRUCTURE
     1 ZH2402      1 GROUP             4 A     ZH2     0 **** ZH2 A 402
