@<TRIPOS>MOLECULE
1p33_MTX_1_ligand
   53    55     1     0     0
SMALL
NO_CHARGES


@<TRIPOS>ATOM
     1 N1          13.1870    15.6470    38.3750 N.ar         1 MTX351   0.0000
     2 C2          13.7140    14.9770    37.2960 C.ar         1 MTX351   0.0000
     3 NA2         12.9990    14.0190    36.6320 N.pl3        1 MTX351   0.0000
     4 N3          15.0120    15.2560    36.9340 N.ar         1 MTX351   0.0000
     5 C4          15.8250    16.1850    37.6330 C.ar         1 MTX351   0.0000
     6 NA4         17.0960    16.4030    37.2330 N.pl3        1 MTX351   0.0000
     7 C4A         15.2860    16.8920    38.7760 C.ar         1 MTX351   0.0000
     8 N5          16.0090    17.8240    39.5410 N.ar         1 MTX351   0.0000
     9 C6          15.4300    18.4430    40.6880 C.ar         1 MTX351   0.0000
    10 C7          13.9550    18.2610    40.9850 C.ar         1 MTX351   0.0000
    11 N8          13.2910    17.2040    40.1530 N.ar         1 MTX351   0.0000
    12 C8A         13.9170    16.5780    39.1060 C.ar         1 MTX351   0.0000
    13 C9          16.1720    19.3020    41.7340 C.3          1 MTX351   0.0000
    14 N10         17.7240    19.6300    41.7350 N.pl3        1 MTX351   0.0000
    15 CM          17.2050    20.6310    40.7400 C.3          1 MTX351   0.0000
    16 C11         19.0000    16.7010    44.8450 C.ar         1 MTX351   0.0000
    17 C12         17.6730    17.0980    44.8460 C.ar         1 MTX351   0.0000
    18 C13         17.1500    18.0570    43.8630 C.ar         1 MTX351   0.0000
    19 C14         18.0680    18.6920    42.8310 C.ar         1 MTX351   0.0000
    20 C15         19.4300    18.2570    42.8970 C.ar         1 MTX351   0.0000
    21 C16         19.9420    17.2700    43.8550 C.ar         1 MTX351   0.0000
    22 C           19.4230    15.6550    45.8350 C.2          1 MTX351   0.0000
    23 O           20.5660    15.3190    45.8160 O.2          1 MTX351   0.0000
    24 N           18.5610    15.0290    46.7360 N.am         1 MTX351   0.0000
    25 CA          18.7710    13.8990    47.7550 C.3          1 MTX351   0.0000
    26 CT          17.4160    13.6530    48.5140 C.2          1 MTX351   0.0000
    27 O1          17.0930    14.4020    49.5050 O.co2        1 MTX351   0.0000
    28 O2          16.6450    12.7800    48.0510 O.co2        1 MTX351  -1.0000
    29 CB          19.9900    14.2460    48.6690 C.3          1 MTX351   0.0000
    30 CG          21.4400    14.1110    48.0480 C.3          1 MTX351   0.0000
    31 CD          22.1730    12.7120    47.8660 C.2          1 MTX351   0.0000
    32 OE1         21.5140    11.5330    47.3650 O.co2        1 MTX351   0.0000
    33 OE2         23.3930    12.6670    48.1380 O.co2        1 MTX351  -1.0000
    34 HA21        13.4038    13.5453    35.8499 H            1 MTX351   0.0000
    35 HA22        12.0713    13.7921    36.9286 H            1 MTX351   0.0000
    36 HA41        17.6697    17.0577    37.7252 H            1 MTX351   0.0000
    37 HA42        17.4636    15.9098    36.4446 H            1 MTX351   0.0000
    38 H5          13.4679    18.7976    41.6741 H            1 MTX351   0.0000
    39 H6          15.9971    18.8562    42.6119 H            1 MTX351   0.0000
    40 H7          15.7155    20.1915    41.7151 H            1 MTX351   0.0000
    41 HM1         17.9649    21.1803    40.3924 H            1 MTX351   0.0000
    42 HM2         16.7668    20.1499    39.9807 H            1 MTX351   0.0000
    43 HM3         16.5381    21.2285    41.1852 H            1 MTX351   0.0000
    44 H11         17.0536    16.7215    45.5349 H            1 MTX351   0.0000
    45 H12         16.1787    18.2947    43.8731 H            1 MTX351   0.0000
    46 H13         20.0773    18.6528    42.2456 H            1 MTX351   0.0000
    47 H14         20.9017    16.9894    43.8394 H            1 MTX351   0.0000
    48 H15         17.6266    15.3844    46.7142 H            1 MTX351   0.0000
    49 HA          18.9945    13.0664    47.2483 H            1 MTX351   0.0000
    50 HB1         19.9485    13.6409    49.4641 H            1 MTX351   0.0000
    51 HB2         19.8798    15.1945    48.9659 H            1 MTX351   0.0000
    52 HG1         22.0404    14.6644    48.6254 H            1 MTX351   0.0000
    53 HG2         21.3885    14.5166    47.1354 H            1 MTX351   0.0000
@<TRIPOS>BOND
     1    1    2      ar
     2    1   12      ar
     3    2    3       1
     4    2    4      ar
     5    4    5      ar
     6    5    6       1
     7    5    7      ar
     8    7    8      ar
     9    7   12      ar
    10    8    9      ar
    11    9   10      ar
    12    9   13       1
    13   10   11      ar
    14   11   12      ar
    15   13   14       1
    16   14   15       1
    17   14   19       1
    18   16   17      ar
    19   16   21      ar
    20   16   22       1
    21   17   18      ar
    22   18   19      ar
    23   19   20      ar
    24   20   21      ar
    25   22   23       2
    26   22   24      am
    27   24   25       1
    28   25   26       1
    29   25   29       1
    30   26   27      ar
    31   26   28      ar
    32   29   30       1
    33   30   31       1
    34   31   32      ar
    35   31   33      ar
    36    3   34       1
    37    3   35       1
    38    6   36       1
    39    6   37       1
    40   10   38       1
    41   13   39       1
    42   13   40       1
    43   15   41       1
    44   15   42       1
    45   15   43       1
    46   17   44       1
    47   18   45       1
    48   20   46       1
    49   21   47       1
    50   24   48       1
    51   25   49       1
    52   30   53       1
    53   29   50       1
    54   29   51       1
    55   30   52       1
@<TRIPOS>SUBSTRUCTURE
     1 MTX351      1 GROUP             4 A     MTX     0 **** MTX A 351
