@<TRIPOS>MOLECULE
2v1a_FMN_1_ligand
   50    52     1     0     0
SMALL
NO_CHARGES


@<TRIPOS>ATOM
     1 N1          20.7690     0.7230     5.9610 N.2          1 FMN1547   0.0000
     2 C2          20.9990    -0.5190     5.4680 C.2          1 FMN1547   0.0000
     3 O2          22.1610    -0.8990     5.2950 O.2          1 FMN1547   0.0000
     4 N3          19.9420    -1.3350     5.1030 N.pl3        1 FMN1547   0.0000
     5 C4          18.6480    -0.9540     5.2780 C.2          1 FMN1547   0.0000
     6 O4          17.7550    -1.6870     4.8670 O.2          1 FMN1547   0.0000
     7 C4A         18.3890     0.3110     5.8170 C.2          1 FMN1547   0.0000
     8 N5          17.1170     0.7210     6.0300 N.2          1 FMN1547   0.0000
     9 C5A         16.8760     1.9880     6.5420 C.ar         1 FMN1547   0.0000
    10 C6          15.5630     2.4110     6.7290 C.ar         1 FMN1547   0.0000
    11 C7          15.2860     3.6810     7.2190 C.ar         1 FMN1547   0.0000
    12 C7M         13.8510     4.1350     7.3080 C.3          1 FMN1547   0.0000
    13 C8          16.3500     4.5230     7.5530 C.ar         1 FMN1547   0.0000
    14 C8M         16.0570     5.9350     8.0390 C.3          1 FMN1547   0.0000
    15 C9          17.6690     4.1000     7.3820 C.ar         1 FMN1547   0.0000
    16 C9A         17.9550     2.8310     6.8670 C.ar         1 FMN1547   0.0000
    17 N10         19.2550     2.4050     6.6650 N.pl3        1 FMN1547   0.0000
    18 C10         19.4800     1.1370     6.1610 C.2          1 FMN1547   0.0000
    19 C1'         20.3960     3.3420     6.7480 C.3          1 FMN1547   0.0000
    20 C2'         21.0370     3.3800     8.1410 C.3          1 FMN1547   0.0000
    21 O2'         20.0230     3.2940     9.1490 O.3          1 FMN1547   0.0000
    22 C3'         21.8770     4.6500     8.2810 C.3          1 FMN1547   0.0000
    23 O3'         21.0590     5.7730     7.9570 O.3          1 FMN1547   0.0000
    24 C4'         23.1210     4.6030     7.3810 C.3          1 FMN1547   0.0000
    25 O4'         23.9770     3.5910     7.8590 O.3          1 FMN1547   0.0000
    26 C5'         23.8500     5.9440     7.3280 C.3          1 FMN1547   0.0000
    27 O5'         24.0310     6.4920     8.6160 O.3          1 FMN1547   0.0000
    28 P           25.3570     6.2320     9.4800 P.3          1 FMN1547   0.0000
    29 O1P         25.2510     6.9940    10.7760 O.co2        1 FMN1547   0.0000
    30 O2P         25.4900     4.7540     9.7200 O.co2        1 FMN1547  -1.0000
    31 O3P         26.5660     6.6880     8.6740 O.co2        1 FMN1547  -1.0000
    32 H1          20.1351    -2.2294     4.6995 H            1 FMN1547   0.0000
    33 H2          14.8091     1.7924     6.5076 H            1 FMN1547   0.0000
    34 H7M1        13.8175     5.0637     7.6772 H            1 FMN1547   0.0000
    35 H7M2        13.4407     4.1238     6.3961 H            1 FMN1547   0.0000
    36 H7M3        13.3431     3.5186     7.9097 H            1 FMN1547   0.0000
    37 H8M1        16.9174     6.4053     8.2351 H            1 FMN1547   0.0000
    38 H8M2        15.5580     6.4344     7.3308 H            1 FMN1547   0.0000
    39 H8M3        15.5030     5.8931     8.8705 H            1 FMN1547   0.0000
    40 H9          18.4196     4.7121     7.6309 H            1 FMN1547   0.0000
    41 H1'1        20.0719     4.2603     6.5207 H            1 FMN1547   0.0000
    42 H1'2        21.0896     3.0597     6.0852 H            1 FMN1547   0.0000
    43 H2'         21.6419     2.5890     8.2325 H            1 FMN1547   0.0000
    44 H13         20.4490     3.3194    10.0534 H            1 FMN1547   0.0000
    45 H3'         22.1735     4.7341     9.2323 H            1 FMN1547   0.0000
    46 H15         21.5955     6.6124     8.0442 H            1 FMN1547   0.0000
    47 H4'         22.8326     4.3624     6.4542 H            1 FMN1547   0.0000
    48 H17         24.6079     3.9781     8.5314 H            1 FMN1547   0.0000
    49 H5'1        23.3134     6.5828     6.7767 H            1 FMN1547   0.0000
    50 H5'2        24.7458     5.8092     6.9045 H            1 FMN1547   0.0000
@<TRIPOS>BOND
     1    1    2       1
     2    1   18       2
     3    2    3       2
     4    2    4       1
     5    4    5       1
     6    5    6       2
     7    5    7       1
     8    7    8       2
     9    7   18       1
    10    8    9       1
    11    9   10      ar
    12    9   16      ar
    13   10   11      ar
    14   11   12       1
    15   11   13      ar
    16   13   14       1
    17   13   15      ar
    18   15   16      ar
    19   16   17       1
    20   17   18       1
    21   17   19       1
    22   19   20       1
    23   20   21       1
    24   20   22       1
    25   22   23       1
    26   22   24       1
    27   24   25       1
    28   24   26       1
    29   26   27       1
    30   27   28       1
    31   28   29      ar
    32   28   30      ar
    33   28   31      ar
    34    4   32       1
    35   10   33       1
    36   12   34       1
    37   12   35       1
    38   12   36       1
    39   14   37       1
    40   14   38       1
    41   14   39       1
    42   15   40       1
    43   19   41       1
    44   19   42       1
    45   20   43       1
    46   21   44       1
    47   22   45       1
    48   23   46       1
    49   24   47       1
    50   25   48       1
    51   26   49       1
    52   26   50       1
@<TRIPOS>SUBSTRUCTURE
     1 FMN1547     1 GROUP             4 A     FMN     0 **** FMN A1547
