@<TRIPOS>MOLECULE
2g0n_GDP_2_ligand
   40    42     1     0     0
SMALL
NO_CHARGES


@<TRIPOS>ATOM
     1 PB         -14.4040    -5.4810   -14.1640 P.3          1 GDP502   0.0000
     2 O1B        -15.7460    -6.1310   -14.3240 O.co2        1 GDP502   0.0000
     3 O2B        -13.5090    -6.4020   -13.3990 O.co2        1 GDP502  -1.0000
     4 O3B        -14.6070    -4.1620   -13.4090 O.co2        1 GDP502  -1.0000
     5 O3A        -13.7520    -5.1210   -15.5640 O.3          1 GDP502   0.0000
     6 PA         -14.5070    -4.8290   -16.9520 P.3          1 GDP502   0.0000
     7 O1A        -14.9090    -6.1080   -17.6470 O.co2        1 GDP502   0.0000
     8 O2A        -15.6080    -3.8320   -16.8230 O.co2        1 GDP502  -1.0000
     9 O5'        -13.2560    -4.2440   -17.7410 O.3          1 GDP502   0.0000
    10 C5'        -12.6800    -3.0180   -17.2450 C.3          1 GDP502   0.0000
    11 C4'        -11.8660    -2.3500   -18.3320 C.3          1 GDP502   0.0000
    12 O4'        -10.8820    -3.2570   -18.8040 O.3          1 GDP502   0.0000
    13 C3'        -12.7440    -1.9970   -19.5140 C.3          1 GDP502   0.0000
    14 O3'        -12.3160    -0.7490   -20.0630 O.3          1 GDP502   0.0000
    15 C2'        -12.5130    -3.1230   -20.4890 C.3          1 GDP502   0.0000
    16 O2'        -12.7260    -2.7800   -21.8660 O.3          1 GDP502   0.0000
    17 C1'        -11.0600    -3.4530   -20.2040 C.3          1 GDP502   0.0000
    18 N9         -10.7360    -4.8470   -20.5810 N.pl3        1 GDP502   0.0000
    19 C8         -11.3860    -5.9720   -20.1850 C.2          1 GDP502   0.0000
    20 N7         -10.7920    -7.0860   -20.6900 N.2          1 GDP502   0.0000
    21 C5          -9.7400    -6.6550   -21.4530 C.2          1 GDP502   0.0000
    22 C6          -8.7050    -7.3020   -22.2810 C.2          1 GDP502   0.0000
    23 O6          -8.6670    -8.5580   -22.4370 O.2          1 GDP502   0.0000
    24 N1          -7.8100    -6.5020   -22.8810 N.pl3        1 GDP502   0.0000
    25 C2          -7.8180    -5.1600   -22.7590 C.2          1 GDP502   0.0000
    26 N2          -6.8710    -4.4560   -23.4130 N.pl3        1 GDP502   0.0000
    27 N3          -8.7510    -4.4840   -22.0350 N.2          1 GDP502   0.0000
    28 C4          -9.7070    -5.1830   -21.3600 C.2          1 GDP502   0.0000
    29 H5'1       -12.0873    -3.2223   -16.4659 H            1 GDP502   0.0000
    30 H5'2       -13.4123    -2.4022   -16.9542 H            1 GDP502   0.0000
    31 H4'        -11.4276    -1.5259   -17.9734 H            1 GDP502   0.0000
    32 H3'        -13.7054    -1.9543   -19.2421 H            1 GDP502   0.0000
    33 H5         -12.5074    -0.7334   -21.0444 H            1 GDP502   0.0000
    34 H2'        -13.0889    -3.9029   -20.2441 H            1 GDP502   0.0000
    35 H7         -11.8797    -2.9217   -22.3796 H            1 GDP502   0.0000
    36 H1'        -10.4686    -2.8237   -20.7081 H            1 GDP502   0.0000
    37 H9         -12.1959    -5.9799   -19.5985 H            1 GDP502   0.0000
    38 H10         -7.1014    -6.9230   -23.4472 H            1 GDP502   0.0000
    39 H11         -6.8510    -3.4587   -23.3419 H            1 GDP502   0.0000
    40 H12         -6.1891    -4.9315   -23.9688 H            1 GDP502   0.0000
@<TRIPOS>BOND
     1    1    2      ar
     2    1    3      ar
     3    1    4      ar
     4    1    5       1
     5    5    6       1
     6    6    7      ar
     7    6    8      ar
     8    6    9       1
     9    9   10       1
    10   10   11       1
    11   11   12       1
    12   11   13       1
    13   12   17       1
    14   13   14       1
    15   13   15       1
    16   15   16       1
    17   15   17       1
    18   17   18       1
    19   18   19       1
    20   18   28       1
    21   19   20       2
    22   20   21       1
    23   21   22       1
    24   21   28       2
    25   22   23       2
    26   22   24       1
    27   24   25       1
    28   25   26       1
    29   25   27       2
    30   27   28       1
    31   26   40       1
    32   26   39       1
    33   24   38       1
    34   10   29       1
    35   10   30       1
    36   11   31       1
    37   13   32       1
    38   14   33       1
    39   15   34       1
    40   16   35       1
    41   17   36       1
    42   19   37       1
@<TRIPOS>SUBSTRUCTURE
     1 GDP502      1 GROUP             4 B     GDP     0 **** GDP B 502
