@<TRIPOS>MOLECULE
5d3e_GLN_VAL_LEU_SEP_SEP_1_ligand
   69    68     4     0     0
SMALL
NO_CHARGES


@<TRIPOS>ATOM
     1 N           85.3810    80.6310    66.3550 N.4          1 GLN767   1.0000
     2 CA          84.0540    80.0720    66.0410 C.3          1 GLN767   0.0000
     3 C           82.9300    81.1370    65.8850 C.2          1 GLN767   0.0000
     4 O           82.8840    82.1590    66.5960 O.2          1 GLN767   0.0000
     5 CB          83.6450    79.0380    67.1030 C.3          1 GLN767   0.0000
     6 CG          82.5910    78.0460    66.6000 C.3          1 GLN767   0.0000
     7 CD          82.7480    76.6430    67.1790 C.2          1 GLN767   0.0000
     8 OE1         83.3070    76.4610    68.2620 O.2          1 GLN767   0.0000
     9 NE2         82.2560    75.6420    66.4480 N.am         1 GLN767   0.0000
    10 H1          85.6341    81.3011    65.6572 H            1 GLN767   0.0000
    11 H2          85.3518    81.0765    67.2498 H            1 GLN767   0.0000
    12 HA          84.1318    79.5896    65.1685 H            1 GLN767   0.0000
    13 HB1         83.2731    79.5239    67.8940 H            1 GLN767   0.0000
    14 HB2         84.4584    78.5258    67.3787 H            1 GLN767   0.0000
    15 HG1         82.6620    77.9870    65.6043 H            1 GLN767   0.0000
    16 HG2         81.6866    78.3918    66.8498 H            1 GLN767   0.0000
    17 HE21        82.3294    74.7002    66.7761 H            1 GLN767   0.0000
    18 HE22        81.8137    75.8332    65.5718 H            1 GLN767   0.0000
    19 N           82.0110    80.8580    64.9590 N.am         2 SEP768   0.0000
    20 CA          81.0580    81.8430    64.4370 C.3          2 SEP768   0.0000
    21 CB          81.1640    81.8480    62.9170 C.3          2 SEP768   0.0000
    22 OG          81.1360    80.5100    62.4390 O.3          2 SEP768   0.0000
    23 C           79.6140    81.5250    64.8380 C.2          2 SEP768   0.0000
    24 O           79.3660    80.4520    65.3990 O.2          2 SEP768   0.0000
    25 P           81.2370    80.4280    60.8410 P.3          2 SEP768   0.0000
    26 O1P         80.4700    81.6550    60.1410 O.co2        2 SEP768   0.0000
    27 O2P         82.7710    80.5710    60.3850 O.co2        2 SEP768  -1.0000
    28 O3P         80.6440    78.9910    60.4470 O.co2        2 SEP768  -1.0000
    29 H10         81.3014    82.7486    64.7842 H            2 SEP768   0.0000
    30 H11         82.0222    82.2824    62.6436 H            2 SEP768   0.0000
    31 H12         80.3949    82.3569    62.5303 H            2 SEP768   0.0000
    32 H13         81.9697    79.9252    64.6009 H            2 SEP768   0.0000
    33 N           78.6690    82.4340    64.5350 N.am         3 VAL769   0.0000
    34 CA          77.2590    82.2470    64.9290 C.3          3 VAL769   0.0000
    35 C           76.7290    80.9640    64.2860 C.2          3 VAL769   0.0000
    36 O           77.0260    80.6810    63.1310 O.2          3 VAL769   0.0000
    37 CB          76.3440    83.5130    64.5610 C.3          3 VAL769   0.0000
    38 CG1         76.2010    83.7180    63.0690 C.3          3 VAL769   0.0000
    39 CG2         74.9390    83.4490    65.2250 C.3          3 VAL769   0.0000
    40 H14         77.2313    82.1267    65.9214 H            3 VAL769   0.0000
    41 HB          76.8038    84.3228    64.9254 H            3 VAL769   0.0000
    42 HG11        75.6239    84.5162    62.8960 H            3 VAL769   0.0000
    43 HG12        77.1037    83.8654    62.6648 H            3 VAL769   0.0000
    44 HG13        75.7809    82.9079    62.6600 H            3 VAL769   0.0000
    45 HG21        74.4105    84.2572    64.9653 H            3 VAL769   0.0000
    46 HG22        74.4620    82.6258    64.9172 H            3 VAL769   0.0000
    47 HG23        75.0412    83.4229    66.2194 H            3 VAL769   0.0000
    48 H22         78.9288    83.2571    64.0300 H            3 VAL769   0.0000
    49 N           75.9860    80.1590    65.0430 N.am         4 LEU770   0.0000
    50 CA          75.4450    78.9140    64.4940 C.3          4 LEU770   0.0000
    51 C           74.0480    78.6280    65.0400 C.2          4 LEU770   0.0000
    52 O           73.0750    78.5820    64.2830 O.2          4 LEU770   0.0000
    53 CB          76.3900    77.7370    64.7870 C.3          4 LEU770   0.0000
    54 CG          77.6930    77.5630    63.9770 C.3          4 LEU770   0.0000
    55 CD1         78.8490    77.0430    64.8470 C.3          4 LEU770   0.0000
    56 CD2         77.4920    76.6320    62.7760 C.3          4 LEU770   0.0000
    57 H23         75.7961    80.4065    65.9931 H            4 LEU770   0.0000
    58 H24         75.3755    79.0167    63.5017 H            4 LEU770   0.0000
    59 H25         73.9206    78.4766    66.0202 H            4 LEU770   0.0000
    60 H26         75.8568    76.9011    64.6564 H            4 LEU770   0.0000
    61 H27         76.6571    77.8153    65.7475 H            4 LEU770   0.0000
    62 HG          77.9560    78.4616    63.6257 H            4 LEU770   0.0000
    63 HD11        79.6707    76.9449    64.2856 H            4 LEU770   0.0000
    64 HD12        79.0266    77.6912    65.5875 H            4 LEU770   0.0000
    65 HD13        78.6016    76.1547    65.2338 H            4 LEU770   0.0000
    66 HD21        78.3533    76.5425    62.2758 H            4 LEU770   0.0000
    67 HD22        77.1981    75.7319    63.0975 H            4 LEU770   0.0000
    68 HD23        76.7935    77.0143    62.1711 H            4 LEU770   0.0000
    69 H35         86.0575    79.8948    66.3711 H            4 LEU770   0.0000
@<TRIPOS>BOND
     1    1    2       1
     2    2    5       1
     3    2    3       1
     4    5    6       1
     5    6    7       1
     6    7    8       2
     7    7    9      am
     8    3    4       2
     9    1   10       1
    10    1   11       1
    11    2   12       1
    12   56   67       1
    13    5   13       1
    14    5   14       1
    15    6   15       1
    16    6   16       1
    17    9   17       1
    18    9   18       1
    19    3   19      am
    20   19   20       1
    21   20   21       1
    22   20   23       1
    23   21   22       1
    24   22   25       1
    25   23   24       2
    26   25   26      ar
    27   25   27      ar
    28   25   28      ar
    29    1   69       1
    30   39   47       1
    31   20   29       1
    32   21   30       1
    33   21   31       1
    34   19   32       1
    35   23   33      am
    36   33   34       1
    37   34   37       1
    38   34   35       1
    39   37   38       1
    40   37   39       1
    41   35   36       2
    42   39   46       1
    43   39   45       1
    44   34   40       1
    45   35   49      am
    46   37   41       1
    47   38   42       1
    48   38   43       1
    49   38   44       1
    50   33   48       1
    51   49   50       1
    52   50   53       1
    53   50   51       1
    54   53   54       1
    55   54   55       1
    56   54   56       1
    57   51   52       2
    58   56   68       1
    59   49   57       1
    60   50   58       1
    61   51   59       1
    62   53   60       1
    63   53   61       1
    64   54   62       1
    65   55   63       1
    66   55   64       1
    67   55   65       1
    68   56   66       1
@<TRIPOS>SUBSTRUCTURE
     1 GLN767      1 RESIDUE           4 K     GLN     0 **** GLN K 767
     2 SEP768     19 GROUP             4 K     SEP     0 **** SEP K 768
     3 VAL769     33 RESIDUE           4 K     VAL     0 **** VAL K 769
     4 LEU770     49 RESIDUE           4 K     LEU     0 **** LEU K 770
