@<TRIPOS>MOLECULE
2a59_LMZ_4_ligand
   33    33     1     0     0
SMALL
NO_CHARGES


@<TRIPOS>ATOM
     1 N1          60.9700    39.4070     8.5150 N.pl3        1 LMZ303  -1.0000
     2 C2          60.7670    40.7390     8.9000 C.2          1 LMZ303   0.0000
     3 N3          59.6720    40.9890     9.6650 N.pl3        1 LMZ303   0.0000
     4 C4          58.7530    40.0300    10.0870 C.2          1 LMZ303   0.0000
     5 C5          58.9930    38.5960     9.6590 C.2          1 LMZ303   0.0000
     6 C6          60.1310    38.3220     8.8590 C.2          1 LMZ303   0.0000
     7 N7          60.4360    37.0600     8.4180 N.pl3        1 LMZ303   0.0000
     8 C8          61.3770    37.0390     7.3090 C.3          1 LMZ303   0.0000
     9 C9          62.7980    36.4990     7.6950 C.3          1 LMZ303   0.0000
    10 O9          63.4360    37.6370     8.2280 O.3          1 LMZ303   0.0000
    11 C10         63.7520    35.8960     6.5630 C.3          1 LMZ303   0.0000
    12 O10         63.5170    36.5260     5.3320 O.3          1 LMZ303   0.0000
    13 C11         63.7700    34.2700     6.2800 C.3          1 LMZ303   0.0000
    14 O11         62.8730    33.8600     7.3270 O.3          1 LMZ303   0.0000
    15 C12         64.9380    33.2980     6.5690 C.3          1 LMZ303   0.0000
    16 O12         65.9540    33.8120     5.7880 O.3          1 LMZ303   0.0000
    17 N5          58.0610    37.6120    10.0880 N.2          1 LMZ303   0.0000
    18 O52         58.2390    36.4220     9.7520 O.2          1 LMZ303   0.0000
    19 O4          57.7180    40.5220    10.8600 O.2          1 LMZ303   0.0000
    20 O2          61.6800    41.6600     8.4700 O.2          1 LMZ303   0.0000
    21 H1          59.5132    41.9351     9.9472 H            1 LMZ303   0.0000
    22 H2          60.0477    36.2313     8.8212 H            1 LMZ303   0.0000
    23 H3          61.4775    37.9718     6.9630 H            1 LMZ303   0.0000
    24 H4          61.0026    36.4549     6.5888 H            1 LMZ303   0.0000
    25 H5          62.6955    35.8200     8.4219 H            1 LMZ303   0.0000
    26 H6          62.8088    38.4153     8.1983 H            1 LMZ303   0.0000
    27 H7          64.6848    36.1419     6.8267 H            1 LMZ303   0.0000
    28 H8          64.3577    36.9665     5.0171 H            1 LMZ303   0.0000
    29 H9          63.3695    34.0713     5.3855 H            1 LMZ303   0.0000
    30 H10         63.1161    32.9395     7.6327 H            1 LMZ303   0.0000
    31 H11         64.7078    32.3645     6.2942 H            1 LMZ303   0.0000
    32 H12         65.1860    33.3088     7.5377 H            1 LMZ303   0.0000
    33 H13         66.1505    34.7505     6.0720 H            1 LMZ303   0.0000
@<TRIPOS>BOND
     1    1    2       1
     2    1    6       1
     3    2    3       1
     4    2   20       2
     5    3    4       1
     6    4    5       1
     7    4   19       2
     8    5    6       2
     9    5   17       1
    10    6    7       1
    11    7    8       1
    12    8    9       1
    13    9   10       1
    14    9   11       1
    15   11   12       1
    16   11   13       1
    17   13   14       1
    18   13   15       1
    19   15   16       1
    20   17   18       2
    21   16   33       1
    22    3   21       1
    23    7   22       1
    24    8   23       1
    25    8   24       1
    26    9   25       1
    27   10   26       1
    28   11   27       1
    29   12   28       1
    30   13   29       1
    31   14   30       1
    32   15   31       1
    33   15   32       1
@<TRIPOS>SUBSTRUCTURE
     1 LMZ303      1 GROUP             4 D     LMZ     0 **** LMZ D 303
