@<TRIPOS>MOLECULE
1w1w_AGS_2_ligand
   43    45     1     0     0
SMALL
NO_CHARGES


@<TRIPOS>ATOM
     1 PG         -92.1980    68.7140    37.0680 P.3          1 AGS2224   0.0000
     2 O2G        -91.4700    69.3830    38.1700 O.co2        1 AGS2224  -1.0000
     3 O3G        -91.3280    67.8370    36.2040 O.co2        1 AGS2224  -1.0000
     4 S1G        -93.1180    69.8430    35.9650 S.2          1 AGS2224   0.0000
     5 PB         -94.0010    66.4830    37.5040 P.3          1 AGS2224   0.0000
     6 O1B        -95.4130    66.9140    37.3720 O.co2        1 AGS2224   0.0000
     7 O2B        -93.4000    65.8660    36.3040 O.co2        1 AGS2224  -1.0000
     8 O3B        -93.1490    67.7420    37.9460 O.3          1 AGS2224   0.0000
     9 PA         -93.4500    63.9210    38.5520 P.3          1 AGS2224   0.0000
    10 O1A        -94.2150    62.9990    37.6910 O.co2        1 AGS2224   0.0000
    11 O2A        -92.0000    64.1930    38.3400 O.co2        1 AGS2224  -1.0000
    12 O3A        -94.1350    65.4090    38.5810 O.3          1 AGS2224   0.0000
    13 O5'        -93.8070    63.5360    40.0480 O.3          1 AGS2224   0.0000
    14 C5'        -92.7890    63.5010    41.0060 C.3          1 AGS2224   0.0000
    15 C4'        -93.4630    63.3530    42.3670 C.3          1 AGS2224   0.0000
    16 O4'        -94.0910    62.1150    42.4760 O.3          1 AGS2224   0.0000
    17 C3'        -92.5140    63.4980    43.5570 C.3          1 AGS2224   0.0000
    18 O3'        -92.7060    64.7820    44.1320 O.3          1 AGS2224   0.0000
    19 C2'        -92.9380    62.3960    44.5390 C.3          1 AGS2224   0.0000
    20 O2'        -93.4640    62.8610    45.7950 O.3          1 AGS2224   0.0000
    21 C1'        -93.9480    61.5540    43.7350 C.3          1 AGS2224   0.0000
    22 N9         -93.4760    60.1560    43.6130 N.pl3        1 AGS2224   0.0000
    23 C8         -92.4730    59.5680    42.8620 C.2          1 AGS2224   0.0000
    24 N7         -92.2850    58.2620    42.9600 N.2          1 AGS2224   0.0000
    25 C5         -93.2470    57.9450    43.8840 C.ar         1 AGS2224   0.0000
    26 C6         -93.6450    56.7210    44.5080 C.ar         1 AGS2224   0.0000
    27 N6         -92.9970    55.4720    44.1810 N.pl3        1 AGS2224   0.0000
    28 N1         -94.6640    56.7280    45.4260 N.ar         1 AGS2224   0.0000
    29 C2         -95.3210    57.9060    45.7430 C.ar         1 AGS2224   0.0000
    30 N3         -95.0590    59.1380    45.2140 N.ar         1 AGS2224   0.0000
    31 C4         -94.0010    59.0960    44.2950 C.ar         1 AGS2224   0.0000
    32 H5'1       -92.2592    64.3486    40.9754 H            1 AGS2224   0.0000
    33 H5'2       -92.1838    62.7233    40.8360 H            1 AGS2224   0.0000
    34 H4'        -94.1638    64.0623    42.4430 H            1 AGS2224   0.0000
    35 H3'        -91.5636    63.3742    43.2716 H            1 AGS2224   0.0000
    36 H5         -91.8484    65.2951    44.0958 H            1 AGS2224   0.0000
    37 H2'        -92.1393    61.8251    44.7290 H            1 AGS2224   0.0000
    38 H7         -93.7109    62.0765    46.3639 H            1 AGS2224   0.0000
    39 H1'        -94.8318    61.5640    44.2027 H            1 AGS2224   0.0000
    40 H9         -91.9006    60.1205    42.2561 H            1 AGS2224   0.0000
    41 H10        -93.2883    54.6258    44.6272 H            1 AGS2224   0.0000
    42 H11        -92.2571    55.4536    43.5085 H            1 AGS2224   0.0000
    43 H12        -96.0539    57.8492    46.4209 H            1 AGS2224   0.0000
@<TRIPOS>BOND
     1    1    2      ar
     2    1    3      ar
     3    1    4       2
     4    1    8       1
     5    5    6      ar
     6    5    7      ar
     7    5    8       1
     8    5   12       1
     9    9   10      ar
    10    9   11      ar
    11    9   12       1
    12    9   13       1
    13   13   14       1
    14   14   15       1
    15   15   16       1
    16   15   17       1
    17   16   21       1
    18   17   18       1
    19   17   19       1
    20   19   20       1
    21   19   21       1
    22   21   22       1
    23   22   23       1
    24   22   31       1
    25   23   24       2
    26   24   25       1
    27   25   26      ar
    28   25   31      ar
    29   26   27       1
    30   26   28      ar
    31   28   29      ar
    32   29   30      ar
    33   30   31      ar
    34   29   43       1
    35   27   42       1
    36   27   41       1
    37   23   40       1
    38   14   32       1
    39   14   33       1
    40   15   34       1
    41   17   35       1
    42   18   36       1
    43   19   37       1
    44   20   38       1
    45   21   39       1
@<TRIPOS>SUBSTRUCTURE
     1 AGS2224     1 GROUP             4 B     AGS     0 **** AGS B2224
