@<TRIPOS>MOLECULE
1pn4_HDC_3_ligand
  110   112     1     0     0
SMALL
NO_CHARGES


@<TRIPOS>ATOM
     1 OAP       -139.8400    36.5700    -2.2250 O.3          1 HDC3277   0.0000
     2 CAP       -140.9120    37.9910    -2.4120 C.3          1 HDC3277   0.0000
     3 C9P       -140.2820    39.1590    -1.7030 C.2          1 HDC3277   0.0000
     4 O9P       -141.2360    40.5690    -1.2440 O.2          1 HDC3277   0.0000
     5 N8P       -139.0240    39.1770    -1.3080 N.am         1 HDC3277   0.0000
     6 C7P       -138.4390    40.3790    -0.7290 C.3          1 HDC3277   0.0000
     7 C6P       -138.0950    41.2540    -1.9530 C.3          1 HDC3277   0.0000
     8 C5P       -137.3180    42.5350    -1.6400 C.2          1 HDC3277   0.0000
     9 O5P       -137.4420    43.1460    -0.6220 O.2          1 HDC3277   0.0000
    10 N4P       -136.4490    43.0130    -2.5250 N.am         1 HDC3277   0.0000
    11 C3P       -135.6470    44.2160    -2.2860 C.3          1 HDC3277   0.0000
    12 C2P       -136.3470    45.5670    -2.4810 C.3          1 HDC3277   0.0000
    13 S1P       -136.5620    46.1190    -4.2130 S.3          1 HDC3277   0.0000
    14 C1'       -135.0290    46.8850    -4.6960 C.2          1 HDC3277   0.0000
    15 O1'       -134.1410    47.0980    -3.8920 O.2          1 HDC3277   0.0000
    16 C2'       -134.8840    47.2430    -6.1460 C.3          1 HDC3277   0.0000
    17 C3'       -133.8900    48.2290    -6.7140 C.3          1 HDC3277   0.0000
    18 O2'       -134.2620    49.5240    -6.1830 O.3          1 HDC3277   0.0000
    19 C4'       -133.6070    48.3650    -8.2160 C.3          1 HDC3277   0.0000
    20 C5'       -132.5170    47.4280    -8.7540 C.3          1 HDC3277   0.0000
    21 C6'       -131.9480    47.8800    -9.9330 C.3          1 HDC3277   0.0000
    22 C7'       -132.7580    47.8960   -11.2360 C.3          1 HDC3277   0.0000
    23 C8'       -131.8830    48.3020   -12.4130 C.3          1 HDC3277   0.0000
    24 C9'       -131.7870    49.8230   -12.5640 C.3          1 HDC3277   0.0000
    25 C10       -130.4780    50.2650   -13.1960 C.3          1 HDC3277   0.0000
    26 CBP       -141.2320    38.1700    -3.9050 C.3          1 HDC3277   0.0000
    27 CDP       -142.3860    39.1660    -4.0110 C.3          1 HDC3277   0.0000
    28 CEP       -139.9990    38.5910    -4.7050 C.3          1 HDC3277   0.0000
    29 CCP       -141.6710    36.8210    -4.4610 C.3          1 HDC3277   0.0000
    30 O6A       -142.5540    36.1970    -3.5300 O.3          1 HDC3277   0.0000
    31 P2A       -143.8340    35.3390    -3.9960 P.3          1 HDC3277   0.0000
    32 O4A       -144.8690    36.2540    -4.7710 O.co2        1 HDC3277   0.0000
    33 O5A       -144.4640    34.5910    -2.7250 O.co2        1 HDC3277  -1.0000
    34 O3A       -143.2440    34.3540    -5.1060 O.3          1 HDC3277   0.0000
    35 P1A       -143.3100    32.7940    -4.8270 P.3          1 HDC3277   0.0000
    36 O1A       -144.8190    32.3070    -4.9530 O.co2        1 HDC3277   0.0000
    37 O2A       -142.7230    32.5050    -3.3800 O.co2        1 HDC3277  -1.0000
    38 O5B       -142.3360    32.1540    -5.9440 O.3          1 HDC3277   0.0000
    39 C5B       -142.7280    31.9350    -7.2780 C.3          1 HDC3277   0.0000
    40 C4B       -141.4760    31.5330    -8.0400 C.3          1 HDC3277   0.0000
    41 O4B       -140.5180    32.5810    -8.0360 O.3          1 HDC3277   0.0000
    42 C1B       -139.2880    32.1520    -7.4590 C.3          1 HDC3277   0.0000
    43 N9A       -138.7990    33.1980    -6.5220 N.pl3        1 HDC3277   0.0000
    44 C8A       -139.3900    33.5930    -5.3380 C.2          1 HDC3277   0.0000
    45 N7A       -138.6510    34.5540    -4.7540 N.2          1 HDC3277   0.0000
    46 C5A       -137.5930    34.7840    -5.5520 C.ar         1 HDC3277   0.0000
    47 C4A       -137.6590    33.9470    -6.6730 C.ar         1 HDC3277   0.0000
    48 N3A       -136.7010    33.9900    -7.6400 N.ar         1 HDC3277   0.0000
    49 C2A       -135.6390    34.8750    -7.5170 C.ar         1 HDC3277   0.0000
    50 N1A       -135.5600    35.7130    -6.4080 N.ar         1 HDC3277   0.0000
    51 C6A       -136.5390    35.6680    -5.4170 C.ar         1 HDC3277   0.0000
    52 N6A       -136.5160    36.4430    -4.3380 N.pl3        1 HDC3277   0.0000
    53 C2B       -139.5120    30.7760    -6.7800 C.3          1 HDC3277   0.0000
    54 O2B       -138.4870    29.7950    -6.9640 O.3          1 HDC3277   0.0000
    55 C3B       -140.7630    30.3140    -7.4540 C.3          1 HDC3277   0.0000
    56 O3B       -140.2690    29.4990    -8.4850 O.3          1 HDC3277   0.0000
    57 P3B       -140.8040    27.9930    -8.5450 P.3          1 HDC3277   0.0000
    58 O9A       -140.2950    27.3070    -9.8360 O.co2        1 HDC3277   0.0000
    59 O8A       -142.3560    28.0980    -8.5890 O.co2        1 HDC3277  -1.0000
    60 O7A       -140.2830    27.3740    -7.2830 O.co2        1 HDC3277  -1.0000
    61 HAP       -139.5507    36.2497    -3.1271 H            1 HDC3277   0.0000
    62 H2        -141.7707    37.7830    -1.9437 H            1 HDC3277   0.0000
    63 H8P       -138.4640    38.3545    -1.4072 H            1 HDC3277   0.0000
    64 H7P1      -137.6150    40.1575    -0.2076 H            1 HDC3277   0.0000
    65 H7P2      -139.0955    40.8426    -0.1339 H            1 HDC3277   0.0000
    66 H6P1      -138.9518    41.5129    -2.3989 H            1 HDC3277   0.0000
    67 H6P2      -137.5449    40.7042    -2.5816 H            1 HDC3277   0.0000
    68 H4P       -136.3374    42.5297    -3.3933 H            1 HDC3277   0.0000
    69 H3P1      -134.8662    44.1875    -2.9102 H            1 HDC3277   0.0000
    70 H3P2      -135.3203    44.1786    -1.3416 H            1 HDC3277   0.0000
    71 H2P1      -135.8092    46.2617    -2.0033 H            1 HDC3277   0.0000
    72 H2P2      -137.2544    45.5039    -2.0654 H            1 HDC3277   0.0000
    73 H2'1      -135.7820    47.5835    -6.4247 H            1 HDC3277   0.0000
    74 H2'2      -134.6953    46.3793    -6.6133 H            1 HDC3277   0.0000
    75 H3'       -133.0121    48.0039    -6.2913 H            1 HDC3277   0.0000
    76 H2'       -133.4460    50.0953    -6.0956 H            1 HDC3277   0.0000
    77 H4'1      -133.3232    49.3071    -8.3949 H            1 HDC3277   0.0000
    78 H4'2      -134.4545    48.1725    -8.7107 H            1 HDC3277   0.0000
    79 H5'1      -132.9229    46.5293    -8.9202 H            1 HDC3277   0.0000
    80 H5'2      -131.7979    47.3465    -8.0639 H            1 HDC3277   0.0000
    81 H6'1      -131.1462    47.3067   -10.1017 H            1 HDC3277   0.0000
    82 H6'2      -131.6554    48.8216    -9.7667 H            1 HDC3277   0.0000
    83 H7'1      -133.5100    48.5490   -11.1463 H            1 HDC3277   0.0000
    84 H7'2      -133.1282    46.9821   -11.4029 H            1 HDC3277   0.0000
    85 H8'1      -132.2720    47.9190   -13.2508 H            1 HDC3277   0.0000
    86 H8'2      -130.9639    47.9335   -12.2734 H            1 HDC3277   0.0000
    87 H9'1      -131.8626    50.2403   -11.6584 H            1 HDC3277   0.0000
    88 H9'2      -132.5425    50.1362   -13.1394 H            1 HDC3277   0.0000
    89 H29       -130.4646    51.2620   -13.2723 H            1 HDC3277   0.0000
    90 H30       -129.7140    49.9640   -12.6253 H            1 HDC3277   0.0000
    91 H31       -130.3939    49.8599   -14.1064 H            1 HDC3277   0.0000
    92 HDP1      -142.6192    39.3048    -4.9735 H            1 HDC3277   0.0000
    93 HDP2      -143.1820    38.8070    -3.5236 H            1 HDC3277   0.0000
    94 HDP3      -142.1120    40.0380    -3.6053 H            1 HDC3277   0.0000
    95 HEP1      -140.2467    38.6969    -5.6680 H            1 HDC3277   0.0000
    96 HEP2      -139.6536    39.4606    -4.3521 H            1 HDC3277   0.0000
    97 HEP3      -139.2903    37.8909    -4.6181 H            1 HDC3277   0.0000
    98 HCP1      -140.8693    36.2404    -4.6029 H            1 HDC3277   0.0000
    99 HCP2      -142.1435    36.9556    -5.3320 H            1 HDC3277   0.0000
   100 H5B1      -143.1137    32.7721    -7.6658 H            1 HDC3277   0.0000
   101 H5B2      -143.4081    31.2032    -7.3218 H            1 HDC3277   0.0000
   102 H4B       -141.7277    31.3325    -8.9868 H            1 HDC3277   0.0000
   103 H1B       -138.6153    32.0402    -8.1904 H            1 HDC3277   0.0000
   104 H8A       -140.2414    33.2200    -4.9691 H            1 HDC3277   0.0000
   105 H2A       -134.9321    34.9107    -8.2234 H            1 HDC3277   0.0000
   106 H6A1      -135.7691    37.0947    -4.2063 H            1 HDC3277   0.0000
   107 H6A2      -137.2456    36.3745    -3.6576 H            1 HDC3277   0.0000
   108 H2B       -139.6833    30.9057    -5.8034 H            1 HDC3277   0.0000
   109 H49       -138.8924    28.8811    -6.9417 H            1 HDC3277   0.0000
   110 H3B       -141.3540    29.8038    -6.8291 H            1 HDC3277   0.0000
@<TRIPOS>BOND
     1    1    2       1
     2    2    3       1
     3    2   26       1
     4    3    4       2
     5    3    5      am
     6    5    6       1
     7    6    7       1
     8    7    8       1
     9    8    9       2
    10    8   10      am
    11   10   11       1
    12   11   12       1
    13   12   13       1
    14   13   14       1
    15   14   15       2
    16   14   16       1
    17   16   17       1
    18   17   18       1
    19   17   19       1
    20   19   20       1
    21   20   21       1
    22   21   22       1
    23   22   23       1
    24   23   24       1
    25   24   25       1
    26   26   27       1
    27   26   28       1
    28   26   29       1
    29   29   30       1
    30   30   31       1
    31   31   32      ar
    32   31   33      ar
    33   31   34       1
    34   34   35       1
    35   35   36      ar
    36   35   37      ar
    37   35   38       1
    38   38   39       1
    39   39   40       1
    40   40   41       1
    41   40   55       1
    42   41   42       1
    43   42   43       1
    44   42   53       1
    45   43   44       1
    46   43   47       1
    47   44   45       2
    48   45   46       1
    49   46   47      ar
    50   46   51      ar
    51   47   48      ar
    52   48   49      ar
    53   49   50      ar
    54   50   51      ar
    55   51   52       1
    56   53   54       1
    57   53   55       1
    58   55   56       1
    59   56   57       1
    60   57   58      ar
    61   57   59      ar
    62   57   60      ar
    63    1   61       1
    64    2   62       1
    65    5   63       1
    66    6   64       1
    67    6   65       1
    68    7   66       1
    69    7   67       1
    70   10   68       1
    71   11   69       1
    72   11   70       1
    73   12   71       1
    74   12   72       1
    75   16   73       1
    76   16   74       1
    77   17   75       1
    78   18   76       1
    79   19   77       1
    80   19   78       1
    81   20   79       1
    82   20   80       1
    83   21   81       1
    84   21   82       1
    85   22   83       1
    86   22   84       1
    87   23   85       1
    88   23   86       1
    89   24   87       1
    90   24   88       1
    91   25   89       1
    92   25   90       1
    93   25   91       1
    94   27   92       1
    95   27   93       1
    96   27   94       1
    97   28   95       1
    98   28   96       1
    99   28   97       1
   100   29   98       1
   101   29   99       1
   102   54  109       1
   103   55  110       1
   104   39  100       1
   105   39  101       1
   106   40  102       1
   107   42  103       1
   108   44  104       1
   109   49  105       1
   110   52  106       1
   111   52  107       1
   112   53  108       1
@<TRIPOS>SUBSTRUCTURE
     1 HDC3277     1 GROUP             4 D     HDC     0 **** HDC D3277
