@<TRIPOS>MOLECULE
2zp0_PI0_1_ligand
   75    76     1     0     0
SMALL
NO_CHARGES


@<TRIPOS>ATOM
     1 C1          37.7220     6.7230    10.9840 C.3          1 PI01001   0.0000
     2 C2          35.6110     9.7150     5.1610 C.2          1 PI01001   0.0000
     3 O3          36.2540     3.2850     9.7740 O.2          1 PI01001   0.0000
     4 C4          38.9330     5.8060    10.8910 C.3          1 PI01001   0.0000
     5 C6          39.9880     6.2720    11.8600 C.3          1 PI01001   0.0000
     6 C7          32.9390     2.1720     8.8700 C.ar         1 PI01001   0.0000
     7 C9          33.7780     3.8520    10.5420 C.3          1 PI01001   0.0000
     8 C10         31.2830     0.5070     9.4880 C.ar         1 PI01001   0.0000
     9 C15         35.3300     6.8100    10.1440 C.2          1 PI01001   0.0000
    10 C16         31.1550     6.5340    11.4590 C.ar         1 PI01001   0.0000
    11 C17         30.9500     6.2600    12.8200 C.ar         1 PI01001   0.0000
    12 C18         34.2450     8.1130     8.3960 C.3          1 PI01001   0.0000
    13 C19         34.3920     8.5050     6.9350 C.3          1 PI01001   0.0000
    14 C20         35.7250     9.1630     6.5900 C.3          1 PI01001   0.0000
    15 C23         29.1460     7.8880    12.8930 C.ar         1 PI01001   0.0000
    16 C24         29.3660     8.1770    11.5270 C.ar         1 PI01001   0.0000
    17 C26         29.7640     6.6310    14.9810 C.cat        1 PI01001   0.0000
    18 C28         32.9160     7.4030     8.6270 C.2          1 PI01001   0.0000
    19 C32         30.6210     7.7730     9.3620 C.3          1 PI01001   0.0000
    20 O1          34.5190     7.0780    11.0280 O.2          1 PI01001   0.0000
    21 N17         35.2990     7.2150     8.8510 N.am         1 PI01001   0.0000
    22 O30         32.7780     6.1940     8.4160 O.2          1 PI01001   0.0000
    23 N31         31.9660     8.2470     9.0810 N.am         1 PI01001   0.0000
    24 C22         29.9470     6.9280    13.5500 C.ar         1 PI01001   0.0000
    25 C25         30.3690     7.4900    10.8030 C.ar         1 PI01001   0.0000
    26 N1          30.5820     5.8060    15.6200 N.pl3        1 PI01001   1.0000
    27 O2          35.3800     8.9570     4.2200 O.2          1 PI01001   0.0000
    28 N3          35.6690    11.0720     5.0450 N.am         1 PI01001   0.0000
    29 N4          36.1380     4.9730    11.4810 N.3          1 PI01001   0.0000
    30 C5          36.5210     5.9300    10.4510 C.3          1 PI01001   0.0000
    31 C3          37.9500     8.0800    10.2670 C.3          1 PI01001   0.0000
    32 S1          35.4490     3.5280    10.9180 S.o2         1 PI01001   0.0000
    33 O4          35.5270     2.6520    12.0380 O.2          1 PI01001   0.0000
    34 C8          32.9410     2.6750    10.1920 C.ar         1 PI01001   0.0000
    35 C12         32.1010     1.1020     8.5150 C.ar         1 PI01001   0.0000
    36 C11         31.2970     0.9940    10.8130 C.ar         1 PI01001   0.0000
    37 C13         32.1230     2.0830    11.1650 C.ar         1 PI01001   0.0000
    38 N2          28.8150     7.2110    15.7040 N.pl3        1 PI01001   0.0000
    39 H1          37.5569     6.9132    11.9518 H            1 PI01001   0.0000
    40 H2          39.2997     5.8307     9.9610 H            1 PI01001   0.0000
    41 H3          38.6615     4.8706    11.1175 H            1 PI01001   0.0000
    42 H4          40.7846     5.6704    11.8002 H            1 PI01001   0.0000
    43 H5          40.2590     7.2075    11.6333 H            1 PI01001   0.0000
    44 H6          39.6208     6.2474    12.7898 H            1 PI01001   0.0000
    45 H7          33.5389     2.5814     8.1826 H            1 PI01001   0.0000
    46 H8          33.7571     4.4822     9.7658 H            1 PI01001   0.0000
    47 H9          33.3661     4.2922    11.3399 H            1 PI01001   0.0000
    48 H10         30.6911    -0.2609     9.2430 H            1 PI01001   0.0000
    49 H11         31.8661     6.0441    10.9547 H            1 PI01001   0.0000
    50 H12         31.5238     5.5811    13.2781 H            1 PI01001   0.0000
    51 H13         34.2669     8.9423     8.9544 H            1 PI01001   0.0000
    52 H14         33.6588     9.1459     6.7078 H            1 PI01001   0.0000
    53 H15         34.2974     7.6795     6.3786 H            1 PI01001   0.0000
    54 H16         35.9138     9.9080     7.2298 H            1 PI01001   0.0000
    55 H17         36.4614     8.4881     6.6376 H            1 PI01001   0.0000
    56 H18         28.4230     8.3634    13.3944 H            1 PI01001   0.0000
    57 H19         28.8097     8.8708    11.0697 H            1 PI01001   0.0000
    58 H20         30.4695     6.9308     8.8446 H            1 PI01001   0.0000
    59 H21         29.9717     8.4710     9.0600 H            1 PI01001   0.0000
    60 H22         35.9982     6.8982     8.2101 H            1 PI01001   0.0000
    61 H23         32.1902     9.2107     9.2259 H            1 PI01001   0.0000
    62 H24         30.4420     5.6164    16.5918 H            1 PI01001   0.0000
    63 H25         31.3389     5.3734    15.1301 H            1 PI01001   0.0000
    64 H26         35.6012    11.5001     4.1438 H            1 PI01001   0.0000
    65 H27         35.7793    11.6393     5.8611 H            1 PI01001   0.0000
    66 H28         35.4736     5.4171    12.0821 H            1 PI01001   0.0000
    67 H29         36.7904     5.4366     9.6240 H            1 PI01001   0.0000
    68 H30         37.1300     8.6456    10.3553 H            1 PI01001   0.0000
    69 H31         38.7267     8.5514    10.6848 H            1 PI01001   0.0000
    70 H32         38.1403     7.9176     9.2988 H            1 PI01001   0.0000
    71 H33         32.0873     0.7657     7.5733 H            1 PI01001   0.0000
    72 H34         30.7182     0.5648    11.5064 H            1 PI01001   0.0000
    73 H35         32.1249     2.4303    12.1027 H            1 PI01001   0.0000
    74 H36         28.7179     6.9868    16.6737 H            1 PI01001   0.0000
    75 H37         28.1968     7.8724    15.2793 H            1 PI01001   0.0000
@<TRIPOS>BOND
     1    1    4       1
     2    1   30       1
     3    1   31       1
     4    2   14       1
     5    2   27       2
     6    2   28      am
     7    3   32       2
     8    4    5       1
     9    6   34      ar
    10    6   35      ar
    11    7   32       1
    12    7   34       1
    13    8   35      ar
    14    8   36      ar
    15    9   20       2
    16    9   21      am
    17    9   30       1
    18   10   11      ar
    19   10   25      ar
    20   11   24      ar
    21   12   13       1
    22   12   18       1
    23   12   21       1
    24   13   14       1
    25   15   16      ar
    26   15   24      ar
    27   16   25      ar
    28   17   24       1
    29   17   26      ar
    30   17   38      ar
    31   18   22       2
    32   18   23      am
    33   19   23       1
    34   19   25       1
    35   29   30       1
    36   29   32       1
    37   32   33       2
    38   34   37      ar
    39   36   37      ar
    40    1   39       1
    41    4   40       1
    42    4   41       1
    43    5   42       1
    44    5   43       1
    45    5   44       1
    46    6   45       1
    47    7   46       1
    48    7   47       1
    49    8   48       1
    50   10   49       1
    51   11   50       1
    52   12   51       1
    53   13   52       1
    54   13   53       1
    55   14   54       1
    56   14   55       1
    57   15   56       1
    58   16   57       1
    59   19   58       1
    60   19   59       1
    61   21   60       1
    62   23   61       1
    63   26   62       1
    64   26   63       1
    65   28   64       1
    66   28   65       1
    67   29   66       1
    68   30   67       1
    69   31   68       1
    70   31   69       1
    71   31   70       1
    72   35   71       1
    73   36   72       1
    74   37   73       1
    75   38   74       1
    76   38   75       1
@<TRIPOS>SUBSTRUCTURE
     1 PI01001     1 GROUP             4 H     PI0     0 **** PI0 H1001
