@<TRIPOS>MOLECULE
1sbr_VIB_2_ligand
   35    36     1     0     0
SMALL
NO_CHARGES


@<TRIPOS>ATOM
     1 CM2         -5.8230    35.9600    16.3730 C.3          1 VIB502   0.0000
     2 N4A         -6.3840    40.0900    18.7180 N.pl3        1 VIB502   0.0000
     3 CM4         -8.4750    37.5730    22.4120 C.3          1 VIB502   0.0000
     4 O1         -11.4320    41.4480    21.6860 O.3          1 VIB502   0.0000
     5 C7         -11.3200    40.0680    22.0440 C.3          1 VIB502   0.0000
     6 C6         -10.2730    39.8270    23.1260 C.3          1 VIB502   0.0000
     7 C2          -7.0110    40.7470    21.5270 C.2          1 VIB502   0.0000
     8 S1          -8.3470    41.5580    22.1210 S.3          1 VIB502   0.0000
     9 C5          -8.9230    40.0270    22.4790 C.2          1 VIB502   0.0000
    10 C4          -8.1390    39.0140    22.1590 C.2          1 VIB502   0.0000
    11 N3          -7.0410    39.4500    21.6050 N.2          1 VIB502   1.0000
    12 C7A         -6.0220    38.7390    21.1670 C.3          1 VIB502   0.0000
    13 C4A         -6.1820    38.7790    18.8150 C.ar         1 VIB502   0.0000
    14 N3A         -6.1110    38.1380    17.6720 N.ar         1 VIB502   0.0000
    15 C2A         -6.0070    36.7160    17.6720 C.ar         1 VIB502   0.0000
    16 N1A         -5.6840    36.0340    18.9110 N.ar         1 VIB502   0.0000
    17 C6A         -5.7550    36.7880    20.0030 C.ar         1 VIB502   0.0000
    18 C5A         -6.0000    38.1140    19.9700 C.ar         1 VIB502   0.0000
    19 HM21        -5.7701    34.9796    16.5625 H            1 VIB502   0.0000
    20 HM22        -6.5991    36.1413    15.7690 H            1 VIB502   0.0000
    21 HM23        -4.9783    36.2599    15.9296 H            1 VIB502   0.0000
    22 H4A1        -6.4498    40.6483    19.5450 H            1 VIB502   0.0000
    23 H4A2        -6.4701    40.5174    17.8180 H            1 VIB502   0.0000
    24 HM41        -7.7287    36.9941    22.0836 H            1 VIB502   0.0000
    25 HM42        -8.6025    37.4278    23.3931 H            1 VIB502   0.0000
    26 HM43        -9.3176    37.3372    21.9278 H            1 VIB502   0.0000
    27 H9         -11.2228    41.5583    20.7144 H            1 VIB502   0.0000
    28 H10        -11.0659    39.5454    21.2301 H            1 VIB502   0.0000
    29 H11        -12.2069    39.7511    22.3801 H            1 VIB502   0.0000
    30 H12        -10.3509    38.8946    23.4789 H            1 VIB502   0.0000
    31 H13        -10.3957    40.4782    23.8749 H            1 VIB502   0.0000
    32 H14         -6.2312    41.2335    21.1331 H            1 VIB502   0.0000
    33 H7A1        -5.8766    38.0232    21.8500 H            1 VIB502   0.0000
    34 H7A2        -5.2386    39.3605    21.1635 H            1 VIB502   0.0000
    35 H6A         -5.6202    36.3511    20.8924 H            1 VIB502   0.0000
@<TRIPOS>BOND
     1    1   15       1
     2    2   13       1
     3    3   10       1
     4    4    5       1
     5    5    6       1
     6    6    9       1
     7    7    8       1
     8    7   11       2
     9    8    9       1
    10    9   10       2
    11   10   11       1
    12   11   12       1
    13   12   18       1
    14   13   14      ar
    15   13   18      ar
    16   14   15      ar
    17   15   16      ar
    18   16   17      ar
    19   17   18      ar
    20    1   19       1
    21    1   20       1
    22    1   21       1
    23    2   22       1
    24    2   23       1
    25    3   24       1
    26    3   25       1
    27    3   26       1
    28    4   27       1
    29    5   28       1
    30    5   29       1
    31    6   30       1
    32    6   31       1
    33    7   32       1
    34   12   33       1
    35   12   34       1
    36   17   35       1
@<TRIPOS>SUBSTRUCTURE
     1 VIB502      1 GROUP             4 A     VIB     0 **** VIB A 502
