@<TRIPOS>MOLECULE
1g1y_BCD_1_ligand
  147   154     1     0     0
SMALL
NO_CHARGES


@<TRIPOS>ATOM
     1 C11         39.0770    58.0960    52.2840 C.3          1 BCD601   0.0000
     2 C21         37.7900    58.4530    51.5180 C.3          1 BCD601   0.0000
     3 O21         37.5310    59.8460    51.5810 O.3          1 BCD601   0.0000
     4 C31         36.5930    57.6940    52.0870 C.3          1 BCD601   0.0000
     5 O31         35.4500    57.9470    51.2750 O.3          1 BCD601   0.0000
     6 C41         36.8520    56.1790    52.1590 C.3          1 BCD601   0.0000
     7 O41         35.8230    55.5810    52.9940 O.3          1 BCD601   0.0000
     8 C51         38.2470    55.8710    52.7720 C.3          1 BCD601   0.0000
     9 O51         39.2910    56.6960    52.1950 O.3          1 BCD601   0.0000
    10 C61         38.6650    54.4320    52.5150 C.3          1 BCD601   0.0000
    11 O61         39.3210    54.2760    51.2420 O.3          1 BCD601   0.0000
    12 C12         35.3690    54.4150    52.3770 C.3          1 BCD601   0.0000
    13 C22         33.9070    54.7590    52.7060 C.3          1 BCD601   0.0000
    14 O22         33.6520    56.1260    52.4190 O.3          1 BCD601   0.0000
    15 C32         33.5970    54.4890    54.1820 C.3          1 BCD601   0.0000
    16 O32         32.2010    54.6820    54.4130 O.3          1 BCD601   0.0000
    17 C42         34.0180    53.0600    54.5960 C.3          1 BCD601   0.0000
    18 O42         33.7240    53.2070    56.0340 O.3          1 BCD601   0.0000
    19 C52         35.4670    52.7930    54.1480 C.3          1 BCD601   0.0000
    20 O52         35.6110    53.0600    52.7330 O.3          1 BCD601   0.0000
    21 C62         35.9560    51.3660    54.3930 C.3          1 BCD601   0.0000
    22 O62         35.2860    50.5510    53.4180 O.3          1 BCD601   0.0000
    23 C13         32.7400    52.4390    56.9430 C.3          1 BCD601   0.0000
    24 C23         31.3590    52.8770    57.3990 C.3          1 BCD601   0.0000
    25 O23         30.7030    53.5460    56.3370 O.3          1 BCD601   0.0000
    26 C33         31.4520    53.8120    58.6080 C.3          1 BCD601   0.0000
    27 O33         30.1540    54.0180    59.1580 O.3          1 BCD601   0.0000
    28 C43         32.3560    53.2660    59.7150 C.3          1 BCD601   0.0000
    29 O43         33.0600    54.3170    60.3000 O.3          1 BCD601   0.0000
    30 C53         33.6570    52.6110    59.1680 C.3          1 BCD601   0.0000
    31 O53         33.3960    51.7830    58.0120 O.3          1 BCD601   0.0000
    32 C63         34.2960    51.6870    60.1970 C.3          1 BCD601   0.0000
    33 O63         35.4110    51.1100    59.5310 O.3          1 BCD601   0.0000
    34 C14         32.8570    54.1390    61.6500 C.3          1 BCD601   0.0000
    35 C24         32.0880    55.3650    62.1910 C.3          1 BCD601   0.0000
    36 O24         30.9410    55.6090    61.3810 O.3          1 BCD601   0.0000
    37 C34         32.9790    56.6130    62.2040 C.3          1 BCD601   0.0000
    38 O34         32.3230    57.6810    62.8770 O.3          1 BCD601   0.0000
    39 C44         34.3130    56.3350    62.8880 C.3          1 BCD601   0.0000
    40 O44         35.1440    57.5030    62.7640 O.3          1 BCD601   0.0000
    41 C54         34.9790    55.1400    62.2110 C.3          1 BCD601   0.0000
    42 O54         34.1120    53.9840    62.3120 O.3          1 BCD601   0.0000
    43 C64         36.3390    54.7570    62.7940 C.3          1 BCD601   0.0000
    44 O64         36.3100    54.9810    64.2200 O.3          1 BCD601   0.0000
    45 C15         35.4000    58.2720    63.7680 C.3          1 BCD601   0.0000
    46 C25         35.3880    59.7840    63.6210 C.3          1 BCD601   0.0000
    47 O25         34.0450    60.2450    63.4920 O.3          1 BCD601   0.0000
    48 C35         36.1860    60.1790    62.3810 C.3          1 BCD601   0.0000
    49 O35         36.2130    61.5920    62.2840 O.3          1 BCD601   0.0000
    50 C45         37.6250    59.6290    62.4440 C.3          1 BCD601   0.0000
    51 O45         38.1770    59.7760    61.1650 O.3          1 BCD601   0.0000
    52 C55         37.6020    58.1080    62.7290 C.3          1 BCD601   0.0000
    53 O55         36.7440    57.7940    63.8590 O.3          1 BCD601   0.0000
    54 C65         38.9930    57.5470    63.0590 C.3          1 BCD601   0.0000
    55 O65         39.4560    57.9520    64.3510 O.3          1 BCD601   0.0000
    56 C16         39.4290    60.5280    61.0970 C.3          1 BCD601   0.0000
    57 C26         39.3900    61.7970    60.2400 C.3          1 BCD601   0.0000
    58 O26         38.2700    62.5980    60.5860 O.3          1 BCD601   0.0000
    59 C36         39.3190    61.4130    58.7630 C.3          1 BCD601   0.0000
    60 O36         39.2610    62.5860    57.9620 O.3          1 BCD601   0.0000
    61 C46         40.5350    60.5390    58.3690 C.3          1 BCD601   0.0000
    62 O46         40.3250    60.0120    57.0270 O.3          1 BCD601   0.0000
    63 C56         40.6810    59.3450    59.3570 C.3          1 BCD601   0.0000
    64 O56         40.5940    59.7650    60.7500 O.3          1 BCD601   0.0000
    65 C66         42.0070    58.5890    59.1890 C.3          1 BCD601   0.0000
    66 O66         42.7650    58.9190    58.0030 O.3          1 BCD601   0.0000
    67 C17         41.4220    60.2970    56.0980 C.3          1 BCD601   0.0000
    68 C27         40.8720    61.1900    54.9830 C.3          1 BCD601   0.0000
    69 O27         40.2730    62.3470    55.5530 O.3          1 BCD601   0.0000
    70 C37         39.8370    60.4470    54.1360 C.3          1 BCD601   0.0000
    71 O37         39.4610    61.2600    53.0340 O.3          1 BCD601   0.0000
    72 C47         40.3690    59.1060    53.6110 C.3          1 BCD601   0.0000
    73 O47         39.1760    58.3230    53.2660 O.3          1 BCD601   0.0000
    74 C57         40.9920    58.2860    54.7680 C.3          1 BCD601   0.0000
    75 O57         41.9400    59.0840    55.5370 O.3          1 BCD601   0.0000
    76 C67         41.7530    57.0580    54.2850 C.3          1 BCD601   0.0000
    77 O67         41.7640    56.0270    55.2850 O.3          1 BCD601   0.0000
    78 H1          39.8347    58.5383    51.8042 H            1 BCD601   0.0000
    79 H2          37.9065    58.1930    50.5594 H            1 BCD601   0.0000
    80 H3          37.5175    60.2247    50.6556 H            1 BCD601   0.0000
    81 H4          36.4101    58.0313    53.0105 H            1 BCD601   0.0000
    82 H5          34.6631    57.4520    51.6435 H            1 BCD601   0.0000
    83 H6          36.8006    55.7897    51.2393 H            1 BCD601   0.0000
    84 H7          38.2127    56.0301    53.7587 H            1 BCD601   0.0000
    85 H8          37.8505    53.8521    52.5309 H            1 BCD601   0.0000
    86 H9          39.2929    54.1448    53.2384 H            1 BCD601   0.0000
    87 H10         39.5779    53.3180    51.1146 H            1 BCD601   0.0000
    88 H11         35.5002    54.5095    51.3902 H            1 BCD601   0.0000
    89 H12         33.3068    54.1928    52.1410 H            1 BCD601   0.0000
    90 H13         33.8443    56.6784    53.2301 H            1 BCD601   0.0000
    91 H14         34.1058    55.1450    54.7395 H            1 BCD601   0.0000
    92 H15         31.6921    54.4641    53.5802 H            1 BCD601   0.0000
    93 H16         33.4018    52.3876    54.1860 H            1 BCD601   0.0000
    94 H17         36.0677    53.4184    54.6461 H            1 BCD601   0.0000
    95 H18         35.7173    51.0699    55.3179 H            1 BCD601   0.0000
    96 H19         36.9470    51.3115    54.2709 H            1 BCD601   0.0000
    97 H20         35.1065    51.0931    52.5971 H            1 BCD601   0.0000
    98 H21         32.5085    51.6620    56.3576 H            1 BCD601   0.0000
    99 H22         30.8278    52.0685    57.6524 H            1 BCD601   0.0000
   100 H23         31.3814    54.0000    55.7594 H            1 BCD601   0.0000
   101 H24         31.8145    54.6931    58.3042 H            1 BCD601   0.0000
   102 H25         30.2194    54.6289    59.9470 H            1 BCD601   0.0000
   103 H26         31.8718    52.6946    60.3777 H            1 BCD601   0.0000
   104 H27         34.3080    53.3283    58.9196 H            1 BCD601   0.0000
   105 H28         33.6508    50.9778    60.4812 H            1 BCD601   0.0000
   106 H29         34.5949    52.2060    60.9978 H            1 BCD601   0.0000
   107 H30         35.4613    51.4641    58.5971 H            1 BCD601   0.0000
   108 H31         32.3064    53.3167    61.7935 H            1 BCD601   0.0000
   109 H32         31.7886    55.1720    63.1254 H            1 BCD601   0.0000
   110 H33         31.1845    56.2316    60.6373 H            1 BCD601   0.0000
   111 H34         33.1553    56.8902    61.2595 H            1 BCD601   0.0000
   112 H35         32.9143    58.4875    62.8782 H            1 BCD601   0.0000
   113 H36         34.1597    56.1319    63.8551 H            1 BCD601   0.0000
   114 H37         35.1023    55.3563    61.2425 H            1 BCD601   0.0000
   115 H38         37.0537    55.3201    62.3792 H            1 BCD601   0.0000
   116 H39         36.5252    53.7922    62.6085 H            1 BCD601   0.0000
   117 H40         36.1217    55.9461    64.4021 H            1 BCD601   0.0000
   118 H41         34.8717    57.9920    64.5696 H            1 BCD601   0.0000
   119 H42         35.8048    60.1991    64.4297 H            1 BCD601   0.0000
   120 H43         34.0298    61.0761    62.9361 H            1 BCD601   0.0000
   121 H44         35.7320    59.8071    61.5713 H            1 BCD601   0.0000
   122 H45         35.4297    61.9042    61.7465 H            1 BCD601   0.0000
   123 H46         38.1673    60.1159    63.1288 H            1 BCD601   0.0000
   124 H47         37.2507    57.6364    61.9201 H            1 BCD601   0.0000
   125 H48         39.6411    57.8714    62.3701 H            1 BCD601   0.0000
   126 H49         38.9504    56.5483    63.0324 H            1 BCD601   0.0000
   127 H50         39.9627    58.8103    64.2696 H            1 BCD601   0.0000
   128 H51         39.5936    60.8473    62.0302 H            1 BCD601   0.0000
   129 H52         40.2261    62.3220    60.3991 H            1 BCD601   0.0000
   130 H53         37.7538    62.1513    61.3168 H            1 BCD601   0.0000
   131 H54         38.4844    60.8832    58.6120 H            1 BCD601   0.0000
   132 H55         39.6898    62.4066    57.0766 H            1 BCD601   0.0000
   133 H56         41.3671    61.0933    58.3862 H            1 BCD601   0.0000
   134 H57         39.9345    58.7037    59.1799 H            1 BCD601   0.0000
   135 H58         41.8026    57.6105    59.1618 H            1 BCD601   0.0000
   136 H59         42.5783    58.7881    59.9852 H            1 BCD601   0.0000
   137 H60         42.2188    58.7146    57.1907 H            1 BCD601   0.0000
   138 H61         42.1522    60.7792    56.5820 H            1 BCD601   0.0000
   139 H62         41.6282    61.4743    54.3937 H            1 BCD601   0.0000
   140 H63         40.9593    63.0691    55.6400 H            1 BCD601   0.0000
   141 H64         39.0279    60.2735    54.6975 H            1 BCD601   0.0000
   142 H65         38.7844    60.7765    52.4786 H            1 BCD601   0.0000
   143 H66         40.9936    59.2162    52.8379 H            1 BCD601   0.0000
   144 H67         40.2583    57.9869    55.3781 H            1 BCD601   0.0000
   145 H68         42.6952    57.3196    54.0759 H            1 BCD601   0.0000
   146 H69         41.3135    56.7061    53.4586 H            1 BCD601   0.0000
   147 H70         42.2690    55.2351    54.9417 H            1 BCD601   0.0000
@<TRIPOS>BOND
     1    1    2       1
     2    1    9       1
     3    1   73       1
     4    2    3       1
     5    2    4       1
     6    4    5       1
     7    4    6       1
     8    6    7       1
     9    6    8       1
    10    7   12       1
    11    8    9       1
    12    8   10       1
    13   10   11       1
    14   12   13       1
    15   12   20       1
    16   13   14       1
    17   13   15       1
    18   15   16       1
    19   15   17       1
    20   17   18       1
    21   17   19       1
    22   18   23       1
    23   19   20       1
    24   19   21       1
    25   21   22       1
    26   23   24       1
    27   23   31       1
    28   24   25       1
    29   24   26       1
    30   26   27       1
    31   26   28       1
    32   28   29       1
    33   28   30       1
    34   29   34       1
    35   30   31       1
    36   30   32       1
    37   32   33       1
    38   34   35       1
    39   34   42       1
    40   35   36       1
    41   35   37       1
    42   37   38       1
    43   37   39       1
    44   39   40       1
    45   39   41       1
    46   40   45       1
    47   41   42       1
    48   41   43       1
    49   43   44       1
    50   45   46       1
    51   45   53       1
    52   46   47       1
    53   46   48       1
    54   48   49       1
    55   48   50       1
    56   50   51       1
    57   50   52       1
    58   51   56       1
    59   52   53       1
    60   52   54       1
    61   54   55       1
    62   56   57       1
    63   56   64       1
    64   57   58       1
    65   57   59       1
    66   59   60       1
    67   59   61       1
    68   61   62       1
    69   61   63       1
    70   62   67       1
    71   63   64       1
    72   63   65       1
    73   65   66       1
    74   67   68       1
    75   67   75       1
    76   68   69       1
    77   68   70       1
    78   70   71       1
    79   70   72       1
    80   72   73       1
    81   72   74       1
    82   74   75       1
    83   74   76       1
    84   76   77       1
    85    1   78       1
    86    2   79       1
    87    3   80       1
    88    4   81       1
    89    5   82       1
    90    6   83       1
    91    8   84       1
    92   10   85       1
    93   10   86       1
    94   11   87       1
    95   12   88       1
    96   13   89       1
    97   14   90       1
    98   15   91       1
    99   16   92       1
   100   17   93       1
   101   19   94       1
   102   21   95       1
   103   21   96       1
   104   22   97       1
   105   23   98       1
   106   24   99       1
   107   25  100       1
   108   26  101       1
   109   27  102       1
   110   28  103       1
   111   30  104       1
   112   32  105       1
   113   32  106       1
   114   33  107       1
   115   34  108       1
   116   35  109       1
   117   36  110       1
   118   37  111       1
   119   38  112       1
   120   39  113       1
   121   41  114       1
   122   43  115       1
   123   43  116       1
   124   44  117       1
   125   45  118       1
   126   46  119       1
   127   47  120       1
   128   48  121       1
   129   49  122       1
   130   50  123       1
   131   52  124       1
   132   54  125       1
   133   54  126       1
   134   55  127       1
   135   56  128       1
   136   57  129       1
   137   58  130       1
   138   59  131       1
   139   60  132       1
   140   61  133       1
   141   63  134       1
   142   65  135       1
   143   65  136       1
   144   66  137       1
   145   67  138       1
   146   68  139       1
   147   69  140       1
   148   70  141       1
   149   71  142       1
   150   72  143       1
   151   74  144       1
   152   76  145       1
   153   76  146       1
   154   77  147       1
@<TRIPOS>SUBSTRUCTURE
     1 BCD601      1 GROUP             4 A     BCD     0 **** BCD A 601
