@<TRIPOS>MOLECULE
4pl0_ANP_1_ligand
   44    46     1     0     0
SMALL
NO_CHARGES


@<TRIPOS>ATOM
     1 PG         -29.5350   -24.7030    11.1780 P.3          1 ANP601   0.0000
     2 O1G        -29.8540   -24.0840     9.7670 O.co2        1 ANP601   0.0000
     3 O2G        -30.0150   -23.4750    12.0240 O.co2        1 ANP601  -1.0000
     4 O3G        -28.0850   -25.0840    11.2310 O.co2        1 ANP601  -1.0000
     5 PB         -30.2650   -27.4770    11.8650 P.3          1 ANP601   0.0000
     6 O1B        -31.3260   -28.3420    11.0760 O.co2        1 ANP601   0.0000
     7 O2B        -28.8590   -27.8920    11.6970 O.co2        1 ANP601  -1.0000
     8 N3B        -30.5980   -25.9060    11.5300 N.3          1 ANP601   0.0000
     9 PA         -30.4420   -28.2350    14.7470 P.3          1 ANP601   0.0000
    10 O1A        -29.6900   -29.5790    14.6800 O.co2        1 ANP601   0.0000
    11 O2A        -29.7160   -27.1060    15.3820 O.co2        1 ANP601  -1.0000
    12 O3A        -30.7450   -27.8570    13.2770 O.3          1 ANP601   0.0000
    13 O5'        -31.8530   -28.6440    15.4150 O.3          1 ANP601   0.0000
    14 C5'        -32.7970   -29.5710    14.8470 C.3          1 ANP601   0.0000
    15 C4'        -34.0830   -29.5480    15.6450 C.3          1 ANP601   0.0000
    16 O4'        -33.8200   -29.8250    17.0370 O.3          1 ANP601   0.0000
    17 C3'        -34.9130   -28.2640    15.6160 C.3          1 ANP601   0.0000
    18 O3'        -36.3070   -28.5550    15.5860 O.3          1 ANP601   0.0000
    19 C2'        -34.5040   -27.5610    16.9130 C.3          1 ANP601   0.0000
    20 O2'        -35.5200   -26.7100    17.4270 O.3          1 ANP601   0.0000
    21 C1'        -34.2470   -28.7440    17.8490 C.3          1 ANP601   0.0000
    22 N9         -33.2190   -28.4880    18.8560 N.pl3        1 ANP601   0.0000
    23 C8         -31.9130   -28.1290    18.6360 C.2          1 ANP601   0.0000
    24 N7         -31.2110   -27.9670    19.7320 N.2          1 ANP601   0.0000
    25 C5         -32.1190   -28.2320    20.7460 C.ar         1 ANP601   0.0000
    26 C6         -32.0070   -28.2100    22.1500 C.ar         1 ANP601   0.0000
    27 N6         -30.8630   -27.9620    22.7950 N.pl3        1 ANP601   0.0000
    28 N1         -33.1160   -28.4890    22.8780 N.ar         1 ANP601   0.0000
    29 C2         -34.2520   -28.7860    22.2320 C.ar         1 ANP601   0.0000
    30 N3         -34.4750   -28.8500    20.9150 N.ar         1 ANP601   0.0000
    31 C4         -33.3610   -28.5550    20.2210 C.ar         1 ANP601   0.0000
    32 H3B        -31.0985   -25.5763    12.3305 H            1 ANP601   0.0000
    33 H5'1       -32.4102   -30.4929    14.8675 H            1 ANP601   0.0000
    34 H5'2       -32.9890   -29.3111    13.9007 H            1 ANP601   0.0000
    35 H4'        -34.6624   -30.2856    15.2984 H            1 ANP601   0.0000
    36 H3'        -34.6593   -27.7062    14.8257 H            1 ANP601   0.0000
    37 H6         -36.4557   -29.4260    15.1177 H            1 ANP601   0.0000
    38 H2'        -33.6599   -27.0435    16.7726 H            1 ANP601   0.0000
    39 H8         -35.4089   -25.7914    17.0477 H            1 ANP601   0.0000
    40 H1'        -35.1007   -28.9932    18.3063 H            1 ANP601   0.0000
    41 H10        -31.5303   -28.0021    17.7209 H            1 ANP601   0.0000
    42 H11        -30.8431   -27.9594    23.7948 H            1 ANP601   0.0000
    43 H12        -30.0269   -27.7791    22.2778 H            1 ANP601   0.0000
    44 H13        -35.0400   -28.9871    22.8139 H            1 ANP601   0.0000
@<TRIPOS>BOND
     1    1    2      ar
     2    1    3      ar
     3    1    4      ar
     4    1    8       1
     5    5    6      ar
     6    5    7      ar
     7    5    8       1
     8    5   12       1
     9    9   10      ar
    10    9   11      ar
    11    9   12       1
    12    9   13       1
    13   13   14       1
    14   14   15       1
    15   15   16       1
    16   15   17       1
    17   16   21       1
    18   17   18       1
    19   17   19       1
    20   19   20       1
    21   19   21       1
    22   21   22       1
    23   22   23       1
    24   22   31       1
    25   23   24       2
    26   24   25       1
    27   25   26      ar
    28   25   31      ar
    29   26   27       1
    30   26   28      ar
    31   28   29      ar
    32   29   30      ar
    33   30   31      ar
    34   29   44       1
    35   27   43       1
    36   27   42       1
    37    8   32       1
    38   23   41       1
    39   14   33       1
    40   14   34       1
    41   15   35       1
    42   17   36       1
    43   18   37       1
    44   19   38       1
    45   20   39       1
    46   21   40       1
@<TRIPOS>SUBSTRUCTURE
     1 ANP601      1 GROUP             4 A     ANP     0 **** ANP A 601
