@<TRIPOS>MOLECULE
4b45_GSP_1_ligand
   44    46     1     0     0
SMALL
NO_CHARGES


@<TRIPOS>ATOM
     1 PG          -4.0550   -40.6270   -16.7960 P.3          1 GSP1342   0.0000
     2 O3B         -4.8350   -39.2380   -16.6080 O.3          1 GSP1342   0.0000
     3 S1G         -2.2380   -40.5180   -17.7790 S.2          1 GSP1342   0.0000
     4 O2G         -3.8350   -41.3050   -15.4120 O.co2        1 GSP1342  -1.0000
     5 O3G         -4.9400   -41.4120   -17.6790 O.co2        1 GSP1342  -1.0000
     6 PB          -4.2730   -37.8890   -15.9630 P.3          1 GSP1342   0.0000
     7 O1B         -4.7110   -37.6690   -14.5360 O.co2        1 GSP1342   0.0000
     8 O2B         -4.8100   -36.7320   -16.7950 O.co2        1 GSP1342  -1.0000
     9 PA          -1.7670   -36.8870   -15.1950 P.3          1 GSP1342   0.0000
    10 O1A         -1.0090   -37.5680   -14.0870 O.co2        1 GSP1342   0.0000
    11 O2A         -2.4670   -35.6880   -14.6100 O.co2        1 GSP1342  -1.0000
    12 O3A         -2.7020   -37.8740   -15.9770 O.3          1 GSP1342   0.0000
    13 O5'         -0.8000   -36.2990   -16.2590 O.3          1 GSP1342   0.0000
    14 C5'          0.4020   -36.8990   -16.6070 C.3          1 GSP1342   0.0000
    15 C4'          1.4440   -35.9140   -16.9280 C.3          1 GSP1342   0.0000
    16 O4'          1.5560   -34.9720   -15.9030 O.3          1 GSP1342   0.0000
    17 C3'          2.7780   -36.5300   -17.0590 C.3          1 GSP1342   0.0000
    18 O3'          3.4810   -35.7420   -17.9410 O.3          1 GSP1342   0.0000
    19 C2'          3.3680   -36.4190   -15.7290 C.3          1 GSP1342   0.0000
    20 O2'          4.7480   -36.3260   -15.8380 O.3          1 GSP1342   0.0000
    21 C1'          2.8410   -35.1530   -15.2560 C.3          1 GSP1342   0.0000
    22 N9           2.6100   -35.0500   -13.8290 N.pl3        1 GSP1342   0.0000
    23 C8           1.9940   -35.9460   -13.0510 C.2          1 GSP1342   0.0000
    24 N7           1.9260   -35.4660   -11.7940 N.2          1 GSP1342   0.0000
    25 C5           2.5040   -34.2270   -11.7770 C.2          1 GSP1342   0.0000
    26 C6           2.7000   -33.2640   -10.7500 C.2          1 GSP1342   0.0000
    27 O6           2.2910   -33.4910    -9.4490 O.2          1 GSP1342   0.0000
    28 N1           3.3270   -32.1060   -11.0680 N.pl3        1 GSP1342   0.0000
    29 C2           3.7390   -31.8700   -12.3340 C.2          1 GSP1342   0.0000
    30 N2           4.4050   -30.5910   -12.6090 N.pl3        1 GSP1342   0.0000
    31 N3           3.5670   -32.7460   -13.3360 N.2          1 GSP1342   0.0000
    32 C4           2.9450   -33.9540   -13.0680 C.2          1 GSP1342   0.0000
    33 H5'1         0.2517   -37.4804   -17.4066 H            1 GSP1342   0.0000
    34 H5'2         0.7150   -37.4603   -15.8409 H            1 GSP1342   0.0000
    35 H4'          1.2086   -35.4488   -17.7813 H            1 GSP1342   0.0000
    36 H3'          2.7235   -37.4799   -17.3666 H            1 GSP1342   0.0000
    37 H5           4.1424   -36.3049   -18.4367 H            1 GSP1342   0.0000
    38 H2'          3.0939   -37.1778   -15.1382 H            1 GSP1342   0.0000
    39 H7           5.1742   -36.7268   -15.0270 H            1 GSP1342   0.0000
    40 H1'          3.4557   -34.4174   -15.5406 H            1 GSP1342   0.0000
    41 H9           1.6403   -36.8310   -13.3537 H            1 GSP1342   0.0000
    42 H10          3.4867   -31.4188   -10.3593 H            1 GSP1342   0.0000
    43 H11          4.7233   -30.3816   -13.5336 H            1 GSP1342   0.0000
    44 H12          4.5404   -29.9291   -11.8717 H            1 GSP1342   0.0000
@<TRIPOS>BOND
     1    1    2       1
     2    1    3       2
     3    1    4      ar
     4    1    5      ar
     5    2    6       1
     6    6    7      ar
     7    6    8      ar
     8    6   12       1
     9    9   10      ar
    10    9   11      ar
    11    9   12       1
    12    9   13       1
    13   13   14       1
    14   14   15       1
    15   15   16       1
    16   15   17       1
    17   16   21       1
    18   17   18       1
    19   17   19       1
    20   19   20       1
    21   19   21       1
    22   21   22       1
    23   22   23       1
    24   22   32       1
    25   23   24       2
    26   24   25       1
    27   25   26       1
    28   25   32       2
    29   26   27       2
    30   26   28       1
    31   28   29       1
    32   29   30       1
    33   29   31       2
    34   31   32       1
    35   30   44       1
    36   30   43       1
    37   28   42       1
    38   23   41       1
    39   14   33       1
    40   14   34       1
    41   15   35       1
    42   17   36       1
    43   18   37       1
    44   19   38       1
    45   20   39       1
    46   21   40       1
@<TRIPOS>SUBSTRUCTURE
     1 GSP1342     1 GROUP             4 A     GSP     0 **** GSP A1342
