@<TRIPOS>MOLECULE
3vhx_GTP_1_ligand
   44    46     1     0     0
SMALL
NO_CHARGES


@<TRIPOS>ATOM
     1 PG         -13.4970   -15.5190   -10.8250 P.3          1 GTP184   0.0000
     2 O1G        -14.8210   -14.8430   -11.1240 O.co2        1 GTP184   0.0000
     3 O2G        -12.3480   -14.5970   -11.1620 O.co2        1 GTP184  -1.0000
     4 O3G        -13.4090   -15.9080    -9.3770 O.co2        1 GTP184  -1.0000
     5 O3B        -13.2960   -16.8500   -11.7010 O.3          1 GTP184   0.0000
     6 PB         -14.4290   -17.8580   -12.2240 P.3          1 GTP184   0.0000
     7 O1B        -15.8390   -17.3400   -12.1100 O.co2        1 GTP184   0.0000
     8 O2B        -14.2560   -19.1470   -11.4700 O.co2        1 GTP184  -1.0000
     9 O3A        -13.9970   -18.0530   -13.7610 O.3          1 GTP184   0.0000
    10 PA         -15.0350   -17.9270   -14.9810 P.3          1 GTP184   0.0000
    11 O1A        -15.4300   -16.4820   -15.1660 O.co2        1 GTP184   0.0000
    12 O2A        -16.2530   -18.8090   -14.7910 O.co2        1 GTP184  -1.0000
    13 O5'        -14.1420   -18.4010   -16.2300 O.3          1 GTP184   0.0000
    14 C5'        -12.9310   -17.7530   -16.5640 C.3          1 GTP184   0.0000
    15 C4'        -12.5890   -18.0400   -18.0260 C.3          1 GTP184   0.0000
    16 O4'        -12.4390   -19.4350   -18.2170 O.3          1 GTP184   0.0000
    17 C3'        -13.6930   -17.6020   -18.9710 C.3          1 GTP184   0.0000
    18 O3'        -13.0930   -17.2190   -20.1840 O.3          1 GTP184   0.0000
    19 C2'        -14.4840   -18.8690   -19.2060 C.3          1 GTP184   0.0000
    20 O2'        -15.1760   -18.8220   -20.4310 O.3          1 GTP184   0.0000
    21 C1'        -13.3660   -19.9010   -19.1830 C.3          1 GTP184   0.0000
    22 N9         -13.8020   -21.2780   -18.8820 N.pl3        1 GTP184   0.0000
    23 C8         -14.6460   -21.7260   -17.8920 C.2          1 GTP184   0.0000
    24 N7         -14.7510   -23.0760   -17.9960 N.2          1 GTP184   0.0000
    25 C5         -13.9890   -23.4950   -19.0350 C.2          1 GTP184   0.0000
    26 C6         -13.7330   -24.7540   -19.5860 C.2          1 GTP184   0.0000
    27 O6         -14.2490   -25.7640   -19.1050 O.2          1 GTP184   0.0000
    28 N1         -12.8840   -24.8600   -20.6770 N.pl3        1 GTP184   0.0000
    29 C2         -12.2980   -23.7220   -21.2170 C.2          1 GTP184   0.0000
    30 N2         -11.4830   -23.8130   -22.2610 N.pl3        1 GTP184   0.0000
    31 N3         -12.5540   -22.4800   -20.6680 N.2          1 GTP184   0.0000
    32 C4         -13.3870   -22.3690   -19.5970 C.2          1 GTP184   0.0000
    33 H5'1       -12.1971   -18.0937   -15.9764 H            1 GTP184   0.0000
    34 H5'2       -13.0328   -16.7669   -16.4324 H            1 GTP184   0.0000
    35 H4'        -11.7372   -17.5754   -18.2680 H            1 GTP184   0.0000
    36 H3'        -14.2556   -16.8727   -18.5816 H            1 GTP184   0.0000
    37 H5         -13.7254   -17.3941   -20.9386 H            1 GTP184   0.0000
    38 H2'        -15.1208   -19.0277   -18.4515 H            1 GTP184   0.0000
    39 H7         -15.6881   -19.6716   -20.5573 H            1 GTP184   0.0000
    40 H1'        -12.9175   -19.9003   -20.0768 H            1 GTP184   0.0000
    41 H9         -15.1043   -21.1545   -17.2114 H            1 GTP184   0.0000
    42 H10        -12.6932   -25.7570   -21.0758 H            1 GTP184   0.0000
    43 H11        -11.0658   -22.9884   -22.6430 H            1 GTP184   0.0000
    44 H12        -11.2863   -24.7062   -22.6654 H            1 GTP184   0.0000
@<TRIPOS>BOND
     1    1    2      ar
     2    1    3      ar
     3    1    4      ar
     4    1    5       1
     5    5    6       1
     6    6    7      ar
     7    6    8      ar
     8    6    9       1
     9    9   10       1
    10   10   11      ar
    11   10   12      ar
    12   10   13       1
    13   13   14       1
    14   14   15       1
    15   15   16       1
    16   15   17       1
    17   16   21       1
    18   17   18       1
    19   17   19       1
    20   19   20       1
    21   19   21       1
    22   21   22       1
    23   22   23       1
    24   22   32       1
    25   23   24       2
    26   24   25       1
    27   25   26       1
    28   25   32       2
    29   26   27       2
    30   26   28       1
    31   28   29       1
    32   29   30       1
    33   29   31       2
    34   31   32       1
    35   30   44       1
    36   30   43       1
    37   28   42       1
    38   23   41       1
    39   14   33       1
    40   14   34       1
    41   15   35       1
    42   17   36       1
    43   18   37       1
    44   19   38       1
    45   20   39       1
    46   21   40       1
@<TRIPOS>SUBSTRUCTURE
     1 GTP184      1 GROUP             4 A     GTP     0 **** GTP A 184
