@<TRIPOS>MOLECULE
1g0n_NDP_1_ligand
   73    77     1     0     0
SMALL
NO_CHARGES


@<TRIPOS>ATOM
     1 PA          97.7740    34.7180    15.9720 P.3          1 NDP401   0.0000
     2 O1A         98.7530    34.5510    17.0700 O.co2        1 NDP401   0.0000
     3 O2A         96.3370    34.4170    16.1530 O.co2        1 NDP401  -1.0000
     4 O5B         98.2630    33.9030    14.6770 O.3          1 NDP401   0.0000
     5 C5B         98.9400    34.6270    13.6580 C.3          1 NDP401   0.0000
     6 C4B         99.3950    33.8310    12.4570 C.3          1 NDP401   0.0000
     7 O4B        100.8330    33.8940    12.3430 O.3          1 NDP401   0.0000
     8 C3B         98.9890    32.3800    12.5250 C.3          1 NDP401   0.0000
     9 O3B         98.2750    31.9600    11.3610 O.3          1 NDP401   0.0000
    10 C2B        100.2950    31.6510    12.4340 C.3          1 NDP401   0.0000
    11 O2B        100.1220    30.4240    11.6760 O.3          1 NDP401   0.0000
    12 C1B        101.1450    32.6750    11.7050 C.3          1 NDP401   0.0000
    13 N9A        102.5800    32.2550    11.6810 N.pl3        1 NDP401   0.0000
    14 C8A        103.3990    32.2510    12.7470 C.2          1 NDP401   0.0000
    15 N7A        104.6140    31.8500    12.3900 N.2          1 NDP401   0.0000
    16 C5A        104.5170    31.6090    11.0990 C.ar         1 NDP401   0.0000
    17 C6A        105.5530    31.1680    10.2800 C.ar         1 NDP401   0.0000
    18 N6A        106.7880    30.9270    10.7380 N.pl3        1 NDP401   0.0000
    19 N1A        105.2380    30.9900     8.9790 N.ar         1 NDP401   0.0000
    20 C2A        104.0030    31.2240     8.5110 C.ar         1 NDP401   0.0000
    21 N3A        103.0170    31.6480     9.3190 N.ar         1 NDP401   0.0000
    22 C4A        103.2520    31.8550    10.6190 C.ar         1 NDP401   0.0000
    23 O3          97.9240    36.2200    15.3860 O.3          1 NDP401   0.0000
    24 PN          97.0140    37.4560    14.9100 P.3          1 NDP401   0.0000
    25 O1N         96.1120    36.9270    13.8610 O.co2        1 NDP401   0.0000
    26 O2N         96.4990    38.1630    16.1050 O.co2        1 NDP401  -1.0000
    27 O5D         98.0880    38.4090    14.1920 O.3          1 NDP401   0.0000
    28 C5D         98.2550    38.4190    12.7710 C.3          1 NDP401   0.0000
    29 C4D         99.3010    39.4450    12.3860 C.3          1 NDP401   0.0000
    30 O4D         98.8860    40.7740    12.7780 O.3          1 NDP401   0.0000
    31 C3D        100.6000    39.2040    13.1260 C.3          1 NDP401   0.0000
    32 O3D        101.7150    39.4690    12.2950 O.3          1 NDP401   0.0000
    33 C2D        100.5550    40.1310    14.3110 C.3          1 NDP401   0.0000
    34 O2D        101.8290    40.4400    14.8750 O.3          1 NDP401   0.0000
    35 C1D         99.8470    41.3180    13.6970 C.3          1 NDP401   0.0000
    36 N1N         99.1390    42.0970    14.7050 N.ar         1 NDP401   1.0000
    37 C2N         98.1950    41.5090    15.5600 C.ar         1 NDP401   0.0000
    38 C3N         97.5320    42.2780    16.5090 C.ar         1 NDP401   0.0000
    39 C7N         96.4870    41.6920    17.4650 C.2          1 NDP401   0.0000
    40 O7N         96.2010    42.2960    18.4930 O.2          1 NDP401   0.0000
    41 N7N         95.9140    40.5210    17.1310 N.am         1 NDP401   0.0000
    42 C4N         97.8240    43.6500    16.5960 C.ar         1 NDP401   0.0000
    43 C5N         98.7680    44.2440    15.7410 C.ar         1 NDP401   0.0000
    44 C6N         99.4310    43.4660    14.7870 C.ar         1 NDP401   0.0000
    45 P2B        100.4590    28.9880    12.2650 P.3          1 NDP401   0.0000
    46 O1X         99.2840    28.4810    12.9940 O.co2        1 NDP401   0.0000
    47 O2X        101.6450    29.0270    13.1760 O.co2        1 NDP401  -1.0000
    48 O3X        100.6910    28.0880    11.0990 O.co2        1 NDP401  -1.0000
    49 H5B1        99.7493    35.0464    14.0693 H            1 NDP401   0.0000
    50 H5B2        98.3226    35.3430    13.3322 H            1 NDP401   0.0000
    51 H4B         98.9927    34.2359    11.6359 H            1 NDP401   0.0000
    52 H3B         98.4955    32.1657    13.3679 H            1 NDP401   0.0000
    53 H5          98.8524    32.0818    10.5537 H            1 NDP401   0.0000
    54 H2B        100.6639    31.4613    13.3439 H            1 NDP401   0.0000
    55 H1B        100.8224    32.7288    10.7600 H            1 NDP401   0.0000
    56 H8A        103.1321    32.5122    13.6747 H            1 NDP401   0.0000
    57 H6A1       107.5007    30.6111    10.1117 H            1 NDP401   0.0000
    58 H6A2       106.9975    31.0629    11.7063 H            1 NDP401   0.0000
    59 H2A        103.8121    31.0798     7.5400 H            1 NDP401   0.0000
    60 H5D1        97.3853    38.6519    12.3359 H            1 NDP401   0.0000
    61 H5D2        98.5491    37.5136    12.4647 H            1 NDP401   0.0000
    62 H4D         99.4605    39.4151    11.3993 H            1 NDP401   0.0000
    63 H3D        100.6351    38.2561    13.4425 H            1 NDP401   0.0000
    64 H16        101.4735    39.2807    11.3431 H            1 NDP401   0.0000
    65 H2D         99.9717    39.7312    15.0181 H            1 NDP401   0.0000
    66 H18        102.2701    39.5973    15.1838 H            1 NDP401   0.0000
    67 H1D        100.5014    41.8966    13.2101 H            1 NDP401   0.0000
    68 H2N         97.9981    40.5314    15.4863 H            1 NDP401   0.0000
    69 H7N1        95.2283    40.1105    17.7321 H            1 NDP401   0.0000
    70 H7N2        96.1739    40.0614    16.2818 H            1 NDP401   0.0000
    71 H4N         97.3532    44.2118    17.2762 H            1 NDP401   0.0000
    72 H5N         98.9652    45.2216    15.8148 H            1 NDP401   0.0000
    73 H6N        100.1030    43.8795    14.1727 H            1 NDP401   0.0000
@<TRIPOS>BOND
     1    1    2      ar
     2    1    3      ar
     3    1    4       1
     4    1   23       1
     5    4    5       1
     6    5    6       1
     7    6    7       1
     8    6    8       1
     9    7   12       1
    10    8    9       1
    11    8   10       1
    12   10   11       1
    13   10   12       1
    14   11   45       1
    15   12   13       1
    16   13   14       1
    17   13   22       1
    18   14   15       2
    19   15   16       1
    20   16   17      ar
    21   16   22      ar
    22   17   18       1
    23   17   19      ar
    24   19   20      ar
    25   20   21      ar
    26   21   22      ar
    27   23   24       1
    28   24   25      ar
    29   24   26      ar
    30   24   27       1
    31   27   28       1
    32   28   29       1
    33   29   30       1
    34   29   31       1
    35   30   35       1
    36   31   32       1
    37   31   33       1
    38   33   34       1
    39   33   35       1
    40   35   36       1
    41   36   37      ar
    42   36   44      ar
    43   37   38      ar
    44   38   39       1
    45   38   42      ar
    46   39   40       2
    47   39   41      am
    48   42   43      ar
    49   43   44      ar
    50   45   46      ar
    51   45   47      ar
    52   45   48      ar
    53   43   72       1
    54    5   49       1
    55    5   50       1
    56    6   51       1
    57    8   52       1
    58    9   53       1
    59   10   54       1
    60   12   55       1
    61   14   56       1
    62   18   57       1
    63   18   58       1
    64   20   59       1
    65   44   73       1
    66   28   60       1
    67   28   61       1
    68   29   62       1
    69   31   63       1
    70   32   64       1
    71   33   65       1
    72   34   66       1
    73   35   67       1
    74   37   68       1
    75   41   69       1
    76   41   70       1
    77   42   71       1
@<TRIPOS>SUBSTRUCTURE
     1 NDP401      1 GROUP             4 B     NDP     0 **** NDP B 401
