@<TRIPOS>MOLECULE
1f0x_FAD_2_ligand
   84    89     1     0     0
SMALL
NO_CHARGES


@<TRIPOS>ATOM
     1 PA          65.0950    75.1340    10.1230 P.3          1 FAD1600   0.0000
     2 O1A         64.1730    74.7670    11.1860 O.co2        1 FAD1600   0.0000
     3 O2A         66.1120    75.9030    10.4650 O.co2        1 FAD1600  -1.0000
     4 O5B         65.4360    73.7850     9.9630 O.3          1 FAD1600   0.0000
     5 C5B         66.1780    73.2460     9.0510 C.3          1 FAD1600   0.0000
     6 C4B         66.3080    71.6770     9.1790 C.3          1 FAD1600   0.0000
     7 O4B         67.1810    71.5260     7.9760 O.3          1 FAD1600   0.0000
     8 C3B         67.2870    71.1220    10.2760 C.3          1 FAD1600   0.0000
     9 O3B         67.4570    69.7060    10.2620 O.3          1 FAD1600   0.0000
    10 C2B         68.5650    71.8850     9.8820 C.3          1 FAD1600   0.0000
    11 O2B         69.7100    71.3970    10.5390 O.3          1 FAD1600   0.0000
    12 C1B         68.5910    71.6100     8.4100 C.3          1 FAD1600   0.0000
    13 N9A         69.1710    72.6600     7.5460 N.pl3        1 FAD1600   0.0000
    14 C8A         68.7450    73.9640     7.3950 C.2          1 FAD1600   0.0000
    15 N7A         69.4660    74.6520     6.5420 N.2          1 FAD1600   0.0000
    16 C5A         70.4030    73.7840     6.0970 C.ar         1 FAD1600   0.0000
    17 C6A         71.5030    73.9230     5.1150 C.ar         1 FAD1600   0.0000
    18 N6A         71.7720    75.0010     4.4630 N.pl3        1 FAD1600   0.0000
    19 N1A         72.2710    72.7800     4.9350 N.ar         1 FAD1600   0.0000
    20 C2A         72.0100    71.5950     5.6090 C.ar         1 FAD1600   0.0000
    21 N3A         71.0290    71.3610     6.5080 N.ar         1 FAD1600   0.0000
    22 C4A         70.2380    72.4910     6.7280 C.ar         1 FAD1600   0.0000
    23 N1          56.4610    71.7620     7.8100 N.2          1 FAD1600   0.0000
    24 C2          55.8850    71.1020     6.7990 C.2          1 FAD1600   0.0000
    25 O2          56.4420    70.1690     6.2390 O.2          1 FAD1600   0.0000
    26 N3          54.5850    71.4730     6.3260 N.pl3        1 FAD1600   0.0000
    27 C4          53.8410    72.5400     6.8980 C.2          1 FAD1600   0.0000
    28 O4          52.7180    72.8320     6.4690 O.2          1 FAD1600   0.0000
    29 C4X         54.4570    73.2450     8.0170 C.2          1 FAD1600   0.0000
    30 N5          53.7900    74.2890     8.6630 N.2          1 FAD1600   0.0000
    31 C5X         54.4390    74.9010     9.7430 C.ar         1 FAD1600   0.0000
    32 C6          53.7470    75.9610    10.4420 C.ar         1 FAD1600   0.0000
    33 C7          54.3330    76.5930    11.5430 C.ar         1 FAD1600   0.0000
    34 C7M         53.5590    77.7070    12.2800 C.3          1 FAD1600   0.0000
    35 C8          55.6750    76.1770    12.0010 C.ar         1 FAD1600   0.0000
    36 C8M         56.3660    76.8020    13.1750 C.3          1 FAD1600   0.0000
    37 C9          56.3700    75.1410    11.3160 C.ar         1 FAD1600   0.0000
    38 C9A         55.7600    74.5020    10.1970 C.ar         1 FAD1600   0.0000
    39 N10         56.3910    73.4060     9.4480 N.pl3        1 FAD1600   0.0000
    40 C10         55.7950    72.8050     8.4300 C.2          1 FAD1600   0.0000
    41 C1'         57.7250    72.9410     9.8160 C.3          1 FAD1600   0.0000
    42 C2'         58.6360    73.6720     8.7830 C.3          1 FAD1600   0.0000
    43 O2'         58.3070    73.2790     7.4340 O.3          1 FAD1600   0.0000
    44 C3'         60.0420    73.3590     8.9880 C.3          1 FAD1600   0.0000
    45 O3'         60.2300    73.7930    10.3540 O.3          1 FAD1600   0.0000
    46 C4'         60.7040    74.2940     7.9510 C.3          1 FAD1600   0.0000
    47 O4'         60.5470    73.7050     6.5700 O.3          1 FAD1600   0.0000
    48 C5'         62.0190    74.2810     8.2020 C.3          1 FAD1600   0.0000
    49 O5'         62.5540    75.4270     7.3570 O.3          1 FAD1600   0.0000
    50 P           63.3570    76.3450     8.2040 P.3          1 FAD1600   0.0000
    51 O1P         63.9530    77.4060     7.2840 O.co2        1 FAD1600   0.0000
    52 O2P         62.7210    76.8300     9.3860 O.co2        1 FAD1600  -1.0000
    53 O3P         64.4270    75.4870     8.7340 O.3          1 FAD1600   0.0000
    54 H5B1        67.0932    73.6442     9.1133 H            1 FAD1600   0.0000
    55 H5B2        65.7825    73.4576     8.1572 H            1 FAD1600   0.0000
    56 H4B         65.4384    71.1869     9.1192 H            1 FAD1600   0.0000
    57 H3B         66.9825    71.4172    11.1816 H            1 FAD1600   0.0000
    58 H5          67.6504    69.3843    11.1889 H            1 FAD1600   0.0000
    59 H2B         68.4544    72.8641    10.0529 H            1 FAD1600   0.0000
    60 H7          70.3661    72.1415    10.6626 H            1 FAD1600   0.0000
    61 H1B         69.0501    70.7386     8.2372 H            1 FAD1600   0.0000
    62 H8A         67.9634    74.3468     7.8875 H            1 FAD1600   0.0000
    63 H6A1        72.5335    75.0166     3.8150 H            1 FAD1600   0.0000
    64 H6A2        71.2193    75.8222     4.6049 H            1 FAD1600   0.0000
    65 H2A         72.6173    70.8269     5.4060 H            1 FAD1600   0.0000
    66 H13         54.1860    70.9620     5.5647 H            1 FAD1600   0.0000
    67 H14         52.8389    76.2453    10.1344 H            1 FAD1600   0.0000
    68 H7M1        54.1128    78.0526    13.0375 H            1 FAD1600   0.0000
    69 H7M2        53.3619    78.4529    11.6438 H            1 FAD1600   0.0000
    70 H7M3        52.7009    77.3371    12.6361 H            1 FAD1600   0.0000
    71 H8M1        57.2583    76.3698    13.3055 H            1 FAD1600   0.0000
    72 H8M2        56.4907    77.7798    13.0066 H            1 FAD1600   0.0000
    73 H8M3        55.8100    76.6735    13.9962 H            1 FAD1600   0.0000
    74 H21         57.2817    74.8626    11.6181 H            1 FAD1600   0.0000
    75 H1'1        57.7994    71.9480     9.7241 H            1 FAD1600   0.0000
    76 H1'2        57.9548    73.2072    10.7521 H            1 FAD1600   0.0000
    77 H2'         58.5056    74.6591     8.8753 H            1 FAD1600   0.0000
    78 H25         59.1258    73.3316     6.8624 H            1 FAD1600   0.0000
    79 H3'         60.2580    72.3930     8.8457 H            1 FAD1600   0.0000
    80 H27         60.0255    74.7693    10.4247 H            1 FAD1600   0.0000
    81 H4'         60.3299    75.2201     8.0000 H            1 FAD1600   0.0000
    82 H29         60.5057    74.4424     5.8958 H            1 FAD1600   0.0000
    83 H5'1        62.4272    73.4114     7.9242 H            1 FAD1600   0.0000
    84 H5'2        62.1990    74.4387     9.1729 H            1 FAD1600   0.0000
@<TRIPOS>BOND
     1    1    2      ar
     2    1    3      ar
     3    1    4       1
     4    1   53       1
     5    4    5       1
     6    5    6       1
     7    6    7       1
     8    6    8       1
     9    7   12       1
    10    8    9       1
    11    8   10       1
    12   10   11       1
    13   10   12       1
    14   12   13       1
    15   13   14       1
    16   13   22       1
    17   14   15       2
    18   15   16       1
    19   16   17      ar
    20   16   22      ar
    21   17   18       1
    22   17   19      ar
    23   19   20      ar
    24   20   21      ar
    25   21   22      ar
    26   23   24       1
    27   23   40       2
    28   24   25       2
    29   24   26       1
    30   26   27       1
    31   27   28       2
    32   27   29       1
    33   29   30       2
    34   29   40       1
    35   30   31       1
    36   31   32      ar
    37   31   38      ar
    38   32   33      ar
    39   33   34       1
    40   33   35      ar
    41   35   36       1
    42   35   37      ar
    43   37   38      ar
    44   38   39       1
    45   39   40       1
    46   39   41       1
    47   41   42       1
    48   42   43       1
    49   42   44       1
    50   44   45       1
    51   44   46       1
    52   46   47       1
    53   46   48       1
    54   48   49       1
    55   49   50       1
    56   50   51      ar
    57   50   52      ar
    58   50   53       1
    59   48   84       1
    60    5   54       1
    61    5   55       1
    62    6   56       1
    63    8   57       1
    64    9   58       1
    65   10   59       1
    66   11   60       1
    67   12   61       1
    68   14   62       1
    69   18   63       1
    70   18   64       1
    71   20   65       1
    72   26   66       1
    73   32   67       1
    74   34   68       1
    75   34   69       1
    76   34   70       1
    77   36   71       1
    78   36   72       1
    79   36   73       1
    80   37   74       1
    81   41   75       1
    82   41   76       1
    83   42   77       1
    84   43   78       1
    85   44   79       1
    86   45   80       1
    87   46   81       1
    88   47   82       1
    89   48   83       1
@<TRIPOS>SUBSTRUCTURE
     1 FAD1600     1 GROUP             4 B     FAD     0 **** FAD B1600
