@<TRIPOS>MOLECULE
4jdr_FAD_1_ligand
   84    89     1     0     0
SMALL
NO_CHARGES


@<TRIPOS>ATOM
     1 PA          36.6360     8.6120    47.1080 P.3          1 FAD501   0.0000
     2 O1A         37.6350     8.6750    48.2350 O.co2        1 FAD501   0.0000
     3 O2A         35.2100     8.5370    47.5590 O.co2        1 FAD501  -1.0000
     4 O5B         36.9400     9.8360    46.1360 O.3          1 FAD501   0.0000
     5 C5B         35.9760    10.2320    45.1840 C.3          1 FAD501   0.0000
     6 C4B         36.0950    11.7450    45.0070 C.3          1 FAD501   0.0000
     7 O4B         35.4010    12.1820    43.8510 O.3          1 FAD501   0.0000
     8 C3B         35.4800    12.4610    46.1860 C.3          1 FAD501   0.0000
     9 O3B         36.4510    13.3820    46.6190 O.3          1 FAD501   0.0000
    10 C2B         34.2410    13.1360    45.6130 C.3          1 FAD501   0.0000
    11 O2B         34.0750    14.4190    46.1280 O.3          1 FAD501   0.0000
    12 C1B         34.5890    13.3000    44.1580 C.3          1 FAD501   0.0000
    13 N9A         33.4270    13.3180    43.2590 N.pl3        1 FAD501   0.0000
    14 C8A         32.3800    12.4310    43.1850 C.2          1 FAD501   0.0000
    15 N7A         31.5610    12.8110    42.1760 N.2          1 FAD501   0.0000
    16 C5A         32.0870    13.9290    41.6100 C.ar         1 FAD501   0.0000
    17 C6A         31.6770    14.7400    40.5590 C.ar         1 FAD501   0.0000
    18 N6A         30.8400    14.2330    39.6620 N.pl3        1 FAD501   0.0000
    19 N1A         32.4480    15.8310    40.2050 N.ar         1 FAD501   0.0000
    20 C2A         33.6100    16.1190    40.8850 C.ar         1 FAD501   0.0000
    21 N3A         34.0080    15.3180    41.9210 N.ar         1 FAD501   0.0000
    22 C4A         33.2610    14.2490    42.2750 C.ar         1 FAD501   0.0000
    23 N1          39.6130     2.1650    53.2700 N.2          1 FAD501   0.0000
    24 C2          40.7610     1.4840    53.5930 C.2          1 FAD501   0.0000
    25 O2          41.4340     0.9930    52.6910 O.2          1 FAD501   0.0000
    26 N3          41.1380     1.3610    54.9070 N.pl3        1 FAD501   0.0000
    27 C4          40.3840     1.9310    55.9100 C.2          1 FAD501   0.0000
    28 O4          40.7430     1.8380    57.0890 O.2          1 FAD501   0.0000
    29 C4X         39.2180     2.6180    55.5820 C.2          1 FAD501   0.0000
    30 N5          38.4260     3.2090    56.5560 N.2          1 FAD501   0.0000
    31 C5X         37.2850     3.8990    56.2100 C.ar         1 FAD501   0.0000
    32 C6          36.4910     4.4800    57.1870 C.ar         1 FAD501   0.0000
    33 C7          35.3460     5.1700    56.8080 C.ar         1 FAD501   0.0000
    34 C7M         34.4660     5.8220    57.8110 C.3          1 FAD501   0.0000
    35 C8          35.0030     5.2730    55.4770 C.ar         1 FAD501   0.0000
    36 C8M         33.7650     6.0220    55.1020 C.3          1 FAD501   0.0000
    37 C9          35.7940     4.6790    54.5000 C.ar         1 FAD501   0.0000
    38 C9A         36.9330     3.9920    54.8710 C.ar         1 FAD501   0.0000
    39 N10         37.7190     3.3960    53.9020 N.pl3        1 FAD501   0.0000
    40 C10         38.8530     2.7290    54.2550 C.2          1 FAD501   0.0000
    41 C1'         37.2460     3.2690    52.4900 C.3          1 FAD501   0.0000
    42 C2'         38.0450     4.2650    51.6660 C.3          1 FAD501   0.0000
    43 O2'         37.8940     5.5780    52.1910 O.3          1 FAD501   0.0000
    44 C3'         37.5780     4.2350    50.2260 C.3          1 FAD501   0.0000
    45 O3'         37.7910     2.9430    49.7150 O.3          1 FAD501   0.0000
    46 C4'         38.3930     5.1890    49.3790 C.3          1 FAD501   0.0000
    47 O4'         38.2790     6.5190    49.8180 O.3          1 FAD501   0.0000
    48 C5'         37.9510     5.0990    47.9310 C.3          1 FAD501   0.0000
    49 O5'         38.6390     6.1190    47.2590 O.3          1 FAD501   0.0000
    50 P           38.1570     6.5110    45.8000 P.3          1 FAD501   0.0000
    51 O1P         39.2500     7.3570    45.1770 O.co2        1 FAD501   0.0000
    52 O2P         37.6880     5.3620    44.9460 O.co2        1 FAD501  -1.0000
    53 O3P         36.8020     7.3530    46.1060 O.3          1 FAD501   0.0000
    54 H5B1        35.0597     9.9978    45.5090 H            1 FAD501   0.0000
    55 H5B2        36.1483     9.7723    44.3128 H            1 FAD501   0.0000
    56 H4B         37.0599    11.9965    44.9311 H            1 FAD501   0.0000
    57 H3B         35.2390    11.8193    46.9141 H            1 FAD501   0.0000
    58 H5          36.6619    14.0178    45.8765 H            1 FAD501   0.0000
    59 H2B         33.4217    12.5765    45.7382 H            1 FAD501   0.0000
    60 H7          34.8734    14.9759    45.8991 H            1 FAD501   0.0000
    61 H1B         35.1181    14.1396    44.0349 H            1 FAD501   0.0000
    62 H8A         32.2454    11.6370    43.7778 H            1 FAD501   0.0000
    63 H6A1        30.5286    14.7944    38.8953 H            1 FAD501   0.0000
    64 H6A2        30.5209    13.2897    39.7530 H            1 FAD501   0.0000
    65 H2A         34.1615    16.9109    40.6228 H            1 FAD501   0.0000
    66 H13         41.9676     0.8530    55.1388 H            1 FAD501   0.0000
    67 H14         36.7394     4.4034    58.1526 H            1 FAD501   0.0000
    68 H7M1        33.6996     6.2639    57.3448 H            1 FAD501   0.0000
    69 H7M2        34.1172     5.1331    58.4464 H            1 FAD501   0.0000
    70 H7M3        34.9886     6.5081    58.3171 H            1 FAD501   0.0000
    71 H8M1        33.6545     6.0071    54.1082 H            1 FAD501   0.0000
    72 H8M2        32.9716     5.5912    55.5321 H            1 FAD501   0.0000
    73 H8M3        33.8406     6.9688    55.4148 H            1 FAD501   0.0000
    74 H21         35.5399     4.7488    53.5353 H            1 FAD501   0.0000
    75 H1'1        36.2702     3.4805    52.4338 H            1 FAD501   0.0000
    76 H1'2        37.4055     2.3400    52.1561 H            1 FAD501   0.0000
    77 H2'         39.0118     4.0116    51.6989 H            1 FAD501   0.0000
    78 H25         37.9755     6.2447    51.4501 H            1 FAD501   0.0000
    79 H3'         36.6076     4.4706    50.1735 H            1 FAD501   0.0000
    80 H27         37.1036     2.7432    49.0167 H            1 FAD501   0.0000
    81 H4'         39.3542     4.9188    49.4339 H            1 FAD501   0.0000
    82 H29         37.9010     7.0815    49.0827 H            1 FAD501   0.0000
    83 H5'1        36.9634     5.2386    47.8588 H            1 FAD501   0.0000
    84 H5'2        38.1903     4.2066    47.5484 H            1 FAD501   0.0000
@<TRIPOS>BOND
     1    1    2      ar
     2    1    3      ar
     3    1    4       1
     4    1   53       1
     5    4    5       1
     6    5    6       1
     7    6    7       1
     8    6    8       1
     9    7   12       1
    10    8    9       1
    11    8   10       1
    12   10   11       1
    13   10   12       1
    14   12   13       1
    15   13   14       1
    16   13   22       1
    17   14   15       2
    18   15   16       1
    19   16   17      ar
    20   16   22      ar
    21   17   18       1
    22   17   19      ar
    23   19   20      ar
    24   20   21      ar
    25   21   22      ar
    26   23   24       1
    27   23   40       2
    28   24   25       2
    29   24   26       1
    30   26   27       1
    31   27   28       2
    32   27   29       1
    33   29   30       2
    34   29   40       1
    35   30   31       1
    36   31   32      ar
    37   31   38      ar
    38   32   33      ar
    39   33   34       1
    40   33   35      ar
    41   35   36       1
    42   35   37      ar
    43   37   38      ar
    44   38   39       1
    45   39   40       1
    46   39   41       1
    47   41   42       1
    48   42   43       1
    49   42   44       1
    50   44   45       1
    51   44   46       1
    52   46   47       1
    53   46   48       1
    54   48   49       1
    55   49   50       1
    56   50   51      ar
    57   50   52      ar
    58   50   53       1
    59   48   84       1
    60    5   54       1
    61    5   55       1
    62    6   56       1
    63    8   57       1
    64    9   58       1
    65   10   59       1
    66   11   60       1
    67   12   61       1
    68   14   62       1
    69   18   63       1
    70   18   64       1
    71   20   65       1
    72   26   66       1
    73   32   67       1
    74   34   68       1
    75   34   69       1
    76   34   70       1
    77   36   71       1
    78   36   72       1
    79   36   73       1
    80   37   74       1
    81   41   75       1
    82   41   76       1
    83   42   77       1
    84   43   78       1
    85   44   79       1
    86   45   80       1
    87   46   81       1
    88   47   82       1
    89   48   83       1
@<TRIPOS>SUBSTRUCTURE
     1 FAD501      1 GROUP             4 A     FAD     0 **** FAD A 501
