@<TRIPOS>MOLECULE
2o28_COA_1_ligand
   80    82     1     0     0
SMALL
NO_CHARGES


@<TRIPOS>ATOM
     1 N1A         -7.6930    24.5360    27.1540 N.ar         1 COA401   0.0000
     2 C2A         -8.8980    24.3280    26.5280 C.ar         1 COA401   0.0000
     3 N3A         -9.3140    25.1730    25.5070 N.ar         1 COA401   0.0000
     4 C4A         -8.5170    26.2040    25.1330 C.ar         1 COA401   0.0000
     5 C5A         -7.2920    26.4290    25.7260 C.ar         1 COA401   0.0000
     6 C6A         -6.8680    25.5660    26.7320 C.ar         1 COA401   0.0000
     7 N6A         -5.7250    25.7510    27.3620 N.pl3        1 COA401   0.0000
     8 N7A         -6.7290    27.5050    25.1090 N.2          1 COA401   0.0000
     9 C8A         -7.5510    27.9620    24.1670 C.2          1 COA401   0.0000
    10 N9A         -8.6710    27.1530    24.1770 N.pl3        1 COA401   0.0000
    11 C1B         -9.8610    27.2790    23.3310 C.3          1 COA401   0.0000
    12 C2B        -10.6160    28.6070    23.5370 C.3          1 COA401   0.0000
    13 O2B        -11.5950    28.5520    24.5650 O.3          1 COA401   0.0000
    14 C3B        -11.3000    28.7600    22.1980 C.3          1 COA401   0.0000
    15 O3B        -12.4380    27.9070    22.1490 O.3          1 COA401   0.0000
    16 P3B        -13.5250    28.0200    20.9660 P.3          1 COA401   0.0000
    17 O7A        -13.9770    29.4560    20.8660 O.co2        1 COA401   0.0000
    18 O8A        -14.6880    27.1340    21.2400 O.co2        1 COA401  -1.0000
    19 O9A        -12.9240    27.6850    19.6330 O.co2        1 COA401  -1.0000
    20 C4B        -10.2720    28.1790    21.2360 C.3          1 COA401   0.0000
    21 O4B         -9.4900    27.2420    21.9730 O.3          1 COA401   0.0000
    22 C5B         -9.4370    29.3250    20.6850 C.3          1 COA401   0.0000
    23 O5B         -8.5670    28.7870    19.7080 O.3          1 COA401   0.0000
    24 P1A         -7.3140    29.6910    19.3530 P.3          1 COA401   0.0000
    25 O1A         -7.7740    31.1270    19.2520 O.co2        1 COA401   0.0000
    26 O2A         -6.6220    29.1120    18.1220 O.co2        1 COA401  -1.0000
    27 O3A         -6.4360    29.5740    20.6700 O.3          1 COA401   0.0000
    28 P2A         -5.1100    30.3050    21.0970 P.3          1 COA401   0.0000
    29 O4A         -5.3670    30.7930    22.4840 O.co2        1 COA401   0.0000
    30 O5A         -4.6860    31.4070    20.1970 O.co2        1 COA401  -1.0000
    31 O6A         -4.0340    29.1250    21.0800 O.3          1 COA401   0.0000
    32 CBP         -3.0120    28.1550    23.0640 C.3          1 COA401   0.0000
    33 CCP         -4.1570    28.1000    22.0570 C.3          1 COA401   0.0000
    34 CDP         -3.0460    29.3270    24.0670 C.3          1 COA401   0.0000
    35 CEP         -2.9160    26.7880    23.7400 C.3          1 COA401   0.0000
    36 CAP         -1.7850    28.4290    22.2780 C.3          1 COA401   0.0000
    37 OAP         -1.6170    27.3270    21.3890 O.3          1 COA401   0.0000
    38 C9P         -0.6550    28.8840    23.1780 C.2          1 COA401   0.0000
    39 O9P          0.4850    29.3870    22.6090 O.2          1 COA401   0.0000
    40 N8P         -0.7140    28.7900    24.5180 N.am         1 COA401   0.0000
    41 C7P          0.4740    28.8050    25.3590 C.3          1 COA401   0.0000
    42 C6P          1.6010    27.8490    24.9370 C.3          1 COA401   0.0000
    43 C5P          1.1340    26.4240    25.1430 C.2          1 COA401   0.0000
    44 O5P          0.6630    26.0930    26.2580 O.2          1 COA401   0.0000
    45 N4P          1.2480    25.5780    24.0950 N.am         1 COA401   0.0000
    46 C3P          0.6140    24.2630    24.0870 C.3          1 COA401   0.0000
    47 C2P          1.4530    23.2730    24.8980 C.3          1 COA401   0.0000
    48 S1P          0.8190    21.5670    24.9700 S.3          1 COA401   0.0000
    49 H2A         -9.4789    23.5640    26.8089 H            1 COA401   0.0000
    50 H6A1        -5.1108    26.4872    27.0777 H            1 COA401   0.0000
    51 H6A2        -5.4720    25.1551    28.1242 H            1 COA401   0.0000
    52 H8A         -7.3884    28.7439    23.5652 H            1 COA401   0.0000
    53 H1B        -10.4803    26.5174    23.5219 H            1 COA401   0.0000
    54 H2B         -9.9757    29.3584    23.6964 H            1 COA401   0.0000
    55 H7         -12.0445    29.4417    24.6452 H            1 COA401   0.0000
    56 H3B        -11.5252    29.7117    21.9893 H            1 COA401   0.0000
    57 H4B        -10.7393    27.7115    20.4856 H            1 COA401   0.0000
    58 H5B1        -8.9058    29.7448    21.4209 H            1 COA401   0.0000
    59 H5B2       -10.0328    30.0125    20.2699 H            1 COA401   0.0000
    60 HCP1        -4.1463    27.2108    21.5996 H            1 COA401   0.0000
    61 HCP2        -5.0237    28.2148    22.5424 H            1 COA401   0.0000
    62 HDP1        -2.2554    29.2673    24.6764 H            1 COA401   0.0000
    63 HDP2        -3.0179    30.1934    23.5684 H            1 COA401   0.0000
    64 HDP3        -3.8868    29.2799    24.6063 H            1 COA401   0.0000
    65 HEP1        -2.1708    26.7975    24.4068 H            1 COA401   0.0000
    66 HEP2        -3.7774    26.5852    24.2057 H            1 COA401   0.0000
    67 HEP3        -2.7370    26.0867    23.0499 H            1 COA401   0.0000
    68 HAP         -2.0035    29.2142    21.6986 H            1 COA401   0.0000
    69 H21         -0.7968    27.4680    20.8346 H            1 COA401   0.0000
    70 H8P         -1.6099    28.7064    24.9543 H            1 COA401   0.0000
    71 H7P1         0.1959    28.5611    26.2881 H            1 COA401   0.0000
    72 H7P2         0.8420    29.7348    25.3545 H            1 COA401   0.0000
    73 H6P1         2.4135    28.0204    25.4943 H            1 COA401   0.0000
    74 H6P2         1.8216    27.9944    23.9725 H            1 COA401   0.0000
    75 H4P          1.7837    25.8619    23.2998 H            1 COA401   0.0000
    76 H3P1         0.5374    23.9379    23.1444 H            1 COA401   0.0000
    77 H3P2        -0.2982    24.3326    24.4907 H            1 COA401   0.0000
    78 H2P1         1.5131    23.6175    25.8349 H            1 COA401   0.0000
    79 H2P2         2.3675    23.2434    24.4944 H            1 COA401   0.0000
    80 H1P          1.4968    20.9428    24.5815 H            1 COA401   0.0000
@<TRIPOS>BOND
     1    1    2      ar
     2    1    6      ar
     3    2    3      ar
     4    3    4      ar
     5    4    5      ar
     6    4   10       1
     7    5    6      ar
     8    5    8       1
     9    6    7       1
    10    8    9       2
    11    9   10       1
    12   10   11       1
    13   11   12       1
    14   11   21       1
    15   12   13       1
    16   12   14       1
    17   14   15       1
    18   14   20       1
    19   15   16       1
    20   16   17      ar
    21   16   18      ar
    22   16   19      ar
    23   20   21       1
    24   20   22       1
    25   22   23       1
    26   23   24       1
    27   24   25      ar
    28   24   26      ar
    29   24   27       1
    30   27   28       1
    31   28   29      ar
    32   28   30      ar
    33   28   31       1
    34   31   33       1
    35   32   33       1
    36   32   34       1
    37   32   35       1
    38   32   36       1
    39   36   37       1
    40   36   38       1
    41   38   39       2
    42   38   40      am
    43   40   41       1
    44   41   42       1
    45   42   43       1
    46   43   44       2
    47   43   45      am
    48   45   46       1
    49   46   47       1
    50   47   48       1
    51    2   49       1
    52    7   50       1
    53    7   51       1
    54    9   52       1
    55   11   53       1
    56   12   54       1
    57   13   55       1
    58   14   56       1
    59   48   80       1
    60   47   79       1
    61   20   57       1
    62   22   58       1
    63   22   59       1
    64   47   78       1
    65   46   77       1
    66   33   60       1
    67   33   61       1
    68   34   62       1
    69   34   63       1
    70   34   64       1
    71   35   65       1
    72   35   66       1
    73   35   67       1
    74   36   68       1
    75   37   69       1
    76   40   70       1
    77   41   71       1
    78   41   72       1
    79   42   73       1
    80   42   74       1
    81   45   75       1
    82   46   76       1
@<TRIPOS>SUBSTRUCTURE
     1 COA401      1 GROUP             4 A     COA     0 **** COA A 401
