@<TRIPOS>MOLECULE
1brp_RTL_1_ligand
   53    53     1     0     0
SMALL
NO_CHARGES


@<TRIPOS>ATOM
     1 C1          17.9640    51.1690   -35.8800 C.3          1 RTL183   0.0000
     2 C2          19.4040    51.4900   -35.4680 C.3          1 RTL183   0.0000
     3 C3          19.5150    52.7700   -34.6520 C.3          1 RTL183   0.0000
     4 C4          18.4640    53.7610   -35.1240 C.3          1 RTL183   0.0000
     5 C5          17.0720    53.1910   -34.8920 C.2          1 RTL183   0.0000
     6 C6          16.8260    51.8640   -35.1370 C.2          1 RTL183   0.0000
     7 C7          15.4220    51.4600   -35.0510 C.2          1 RTL183   0.0000
     8 C8          14.5930    52.1270   -35.9250 C.2          1 RTL183   0.0000
     9 C9          13.2190    51.5970   -35.9720 C.2          1 RTL183   0.0000
    10 C10         12.4820    52.2710   -36.9120 C.2          1 RTL183   0.0000
    11 C11         11.0910    51.8110   -36.9740 C.2          1 RTL183   0.0000
    12 C12         10.3710    52.6370   -37.8070 C.2          1 RTL183   0.0000
    13 C13          8.9110    52.4630   -37.7680 C.3          1 RTL183   0.0000
    14 C14          8.3500    53.4960   -38.4770 C.3          1 RTL183   0.0000
    15 C15          7.0200    53.1960   -38.9920 C.3          1 RTL183   0.0000
    16 O1           6.1050    54.0160   -38.3970 O.3          1 RTL183   0.0000
    17 C16         17.9050    49.9510   -34.9670 C.3          1 RTL183   0.0000
    18 C17         17.8890    50.7280   -37.3240 C.3          1 RTL183   0.0000
    19 C18         16.4060    54.1400   -33.9110 C.3          1 RTL183   0.0000
    20 C19         13.0330    50.3670   -35.0900 C.3          1 RTL183   0.0000
    21 C20          8.5230    51.0540   -38.2010 C.3          1 RTL183   0.0000
    22 H1          19.9578    51.5895   -36.2947 H            1 RTL183   0.0000
    23 H2          19.7560    50.7309   -34.9204 H            1 RTL183   0.0000
    24 H3          20.4253    53.1656   -34.7737 H            1 RTL183   0.0000
    25 H4          19.3681    52.5630   -33.6847 H            1 RTL183   0.0000
    26 H5          18.5908    53.9390   -36.0998 H            1 RTL183   0.0000
    27 H6          18.5615    54.6156   -34.6139 H            1 RTL183   0.0000
    28 H7          15.0940    50.7620   -34.4144 H            1 RTL183   0.0000
    29 H8          14.8966    52.9024   -36.4788 H            1 RTL183   0.0000
    30 H9          12.8526    52.9967   -37.4916 H            1 RTL183   0.0000
    31 H10         10.7225    51.0195   -36.4864 H            1 RTL183   0.0000
    32 H11         10.8116    53.3111   -38.3998 H            1 RTL183   0.0000
    33 H12          8.6258    52.5688   -36.8154 H            1 RTL183   0.0000
    34 H13          8.9474    53.7100   -39.2499 H            1 RTL183   0.0000
    35 H14          8.2840    54.2926   -37.8761 H            1 RTL183   0.0000
    36 H15          6.7926    52.2429   -38.7925 H            1 RTL183   0.0000
    37 H16          7.0049    53.3422   -39.9811 H            1 RTL183   0.0000
    38 H17          5.2237    53.5468   -38.3408 H            1 RTL183   0.0000
    39 H18         17.0065    49.5190   -35.0452 H            1 RTL183   0.0000
    40 H19         18.6133    49.2983   -35.2359 H            1 RTL183   0.0000
    41 H20         18.0565    50.2362   -34.0206 H            1 RTL183   0.0000
    42 H21         16.9389    50.5263   -37.5620 H            1 RTL183   0.0000
    43 H22         18.2325    51.4587   -37.9140 H            1 RTL183   0.0000
    44 H23         18.4460    49.9073   -37.4512 H            1 RTL183   0.0000
    45 H24         15.4793    53.8198   -33.7143 H            1 RTL183   0.0000
    46 H25         16.9356    54.1688   -33.0633 H            1 RTL183   0.0000
    47 H26         16.3645    55.0562   -34.3095 H            1 RTL183   0.0000
    48 H27         12.0876    50.0483   -35.1576 H            1 RTL183   0.0000
    49 H28         13.6516    49.6424   -35.3938 H            1 RTL183   0.0000
    50 H29         13.2379    50.6038   -34.1403 H            1 RTL183   0.0000
    51 H30          7.5283    50.9570   -38.1674 H            1 RTL183   0.0000
    52 H31          8.8423    50.8924   -39.1348 H            1 RTL183   0.0000
    53 H32          8.9438    50.3882   -37.5849 H            1 RTL183   0.0000
@<TRIPOS>BOND
     1    1    2       1
     2    1    6       1
     3    1   17       1
     4    1   18       1
     5    2    3       1
     6    3    4       1
     7    4    5       1
     8    5    6       2
     9    5   19       1
    10    6    7       1
    11    7    8       2
    12    8    9       1
    13    9   10       2
    14    9   20       1
    15   10   11       1
    16   11   12       2
    17   12   13       1
    18   13   14       1
    19   13   21       1
    20   14   15       1
    21   15   16       1
    22    2   22       1
    23    2   23       1
    24    3   24       1
    25    3   25       1
    26    4   26       1
    27    4   27       1
    28    7   28       1
    29    8   29       1
    30   10   30       1
    31   11   31       1
    32   12   32       1
    33   13   33       1
    34   14   34       1
    35   14   35       1
    36   15   36       1
    37   15   37       1
    38   16   38       1
    39   17   39       1
    40   17   40       1
    41   17   41       1
    42   18   42       1
    43   18   43       1
    44   18   44       1
    45   19   45       1
    46   19   46       1
    47   19   47       1
    48   20   48       1
    49   20   49       1
    50   20   50       1
    51   21   51       1
    52   21   52       1
    53   21   53       1
@<TRIPOS>SUBSTRUCTURE
     1 RTL183      1 GROUP             4 A     RTL     0 **** RTL A 183
