@<TRIPOS>MOLECULE
4twl_ASC_2_ligand
   18    18     1     0     0
SMALL
NO_CHARGES


@<TRIPOS>ATOM
     1 C1          27.9350    30.8370    12.5370 C.2          1 ASC304   0.0000
     2 C2          26.6100    31.3860    12.5730 C.2          1 ASC304   0.0000
     3 C3          26.6470    32.3250    11.6870 C.2          1 ASC304   0.0000
     4 C4          27.4350    31.7150    10.5650 C.3          1 ASC304   0.0000
     5 C5          27.6410    32.6800     9.4030 C.3          1 ASC304   0.0000
     6 C6          26.2590    33.0730     8.8180 C.3          1 ASC304   0.0000
     7 O1          28.4410    30.2300    13.4390 O.2          1 ASC304   0.0000
     8 O2          25.5600    30.9430    13.2400 O.2          1 ASC304   0.0000
     9 O3          26.1890    33.5670    11.8050 O.2          1 ASC304   0.0000
    10 O4          28.5720    31.1450    11.2820 O.3          1 ASC304   0.0000
    11 O5          28.4870    32.0630     8.4300 O.3          1 ASC304   0.0000
    12 O6          26.2100    33.1860     7.3850 O.3          1 ASC304   0.0000
    13 H1          26.8973    30.9480    10.2148 H            1 ASC304   0.0000
    14 H2          28.0919    33.5044     9.7452 H            1 ASC304   0.0000
    15 H3          25.9984    33.9566     9.2070 H            1 ASC304   0.0000
    16 H4          25.5963    32.3778     9.0963 H            1 ASC304   0.0000
    17 H5          28.7417    31.1478     8.7422 H            1 ASC304   0.0000
    18 H6          25.2854    33.4413     7.1022 H            1 ASC304   0.0000
@<TRIPOS>BOND
     1    1    2       1
     2    1    7       2
     3    1   10       1
     4    2    3       1
     5    2    8       2
     6    3    4       1
     7    3    9       2
     8    4    5       1
     9    4   10       1
    10    5    6       1
    11    5   11       1
    12    6   12       1
    13    4   13       1
    14    5   14       1
    15    6   15       1
    16    6   16       1
    17   11   17       1
    18   12   18       1
@<TRIPOS>SUBSTRUCTURE
     1 ASC304      1 GROUP             4 B     ASC     0 **** ASC B 304
