@<TRIPOS>MOLECULE
3e85_BSU_4_ligand
   28    29     1     0     0
SMALL
NO_CHARGES


@<TRIPOS>ATOM
     1 N7          11.8800     4.0110    63.8220 N.pl3        1 BSU161   0.0000
     2 C8          10.6430     3.5290    64.0230 C.2          1 BSU161   0.0000
     3 N9           9.7700     4.5770    64.0940 N.2          1 BSU161   0.0000
     4 O11         10.3410     2.3400    64.1160 O.3          1 BSU161   0.0000
     5 C5          13.1800     3.4410    63.6820 C.ar         1 BSU161   0.0000
     6 C4          13.5330     2.2150    64.2130 C.ar         1 BSU161   0.0000
     7 C3          14.8470     1.7690    64.0450 C.ar         1 BSU161   0.0000
     8 C2          15.7760     2.5330    63.3770 C.ar         1 BSU161   0.0000
     9 C1          15.4210     3.7610    62.8630 C.ar         1 BSU161   0.0000
    10 C6          14.1200     4.2150    63.0180 C.ar         1 BSU161   0.0000
    11 C10          8.3720     4.6960    64.3020 C.ar         1 BSU161   0.0000
    12 C16          7.8070     5.9140    63.9880 C.ar         1 BSU161   0.0000
    13 C15          6.4610     6.1260    64.1710 C.ar         1 BSU161   0.0000
    14 C14          5.6460     5.1560    64.6860 C.ar         1 BSU161   0.0000
    15 C13          6.2010     3.9570    65.0130 C.ar         1 BSU161   0.0000
    16 C12          7.5660     3.7290    64.8180 C.ar         1 BSU161   0.0000
    17 H1          11.8930     5.0086    63.7542 H            1 BSU161   0.0000
    18 H2          12.8636     1.6595    64.7062 H            1 BSU161   0.0000
    19 H3          15.1162     0.8804    64.4163 H            1 BSU161   0.0000
    20 H4          16.7108     2.1963    63.2643 H            1 BSU161   0.0000
    21 H5          16.0961     4.3204    62.3820 H            1 BSU161   0.0000
    22 H6          13.8577     5.1065    62.6485 H            1 BSU161   0.0000
    23 H7           8.3803     6.6483    63.6246 H            1 BSU161   0.0000
    24 H8           6.0683     7.0111    63.9214 H            1 BSU161   0.0000
    25 H9           4.6690     5.3231    64.8187 H            1 BSU161   0.0000
    26 H10          5.6272     3.2331    65.3960 H            1 BSU161   0.0000
    27 H11          7.9564     2.8412    65.0616 H            1 BSU161   0.0000
    28 H12         11.0484     1.6371    64.0412 H            1 BSU161   0.0000
@<TRIPOS>BOND
     1    1    2       1
     2    1    5       1
     3    2    3       2
     4    2    4       1
     5    3   11       1
     6    5    6      ar
     7    5   10      ar
     8    6    7      ar
     9    7    8      ar
    10    8    9      ar
    11    9   10      ar
    12   11   12      ar
    13   11   16      ar
    14   12   13      ar
    15   13   14      ar
    16   14   15      ar
    17   15   16      ar
    18    1   17       1
    19   16   27       1
    20    6   18       1
    21    7   19       1
    22    8   20       1
    23    9   21       1
    24   10   22       1
    25   12   23       1
    26   13   24       1
    27   14   25       1
    28   15   26       1
    29    4   28       1
@<TRIPOS>SUBSTRUCTURE
     1 BSU161      1 GROUP             4 A     BSU     0 **** BSU A 161
