@<TRIPOS>MOLECULE
4yek_THM_1_ligand
   31    32     1     0     0
SMALL
NO_CHARGES


@<TRIPOS>ATOM
     1 O5'        218.4260    51.1850     1.0530 O.3          1 THM507   0.0000
     2 C5'        218.1720    51.1090     2.4760 C.3          1 THM507   0.0000
     3 C4'        218.1700    52.4980     3.0880 C.3          1 THM507   0.0000
     4 O4'        217.0740    52.6760     3.7200 O.3          1 THM507   0.0000
     5 C3'        219.4360    52.7170     4.1360 C.3          1 THM507   0.0000
     6 O3'        220.1560    53.9970     3.8960 O.3          1 THM507   0.0000
     7 C2'        218.9760    52.7160     5.2730 C.3          1 THM507   0.0000
     8 C1'        217.4420    53.0510     5.1150 C.3          1 THM507   0.0000
     9 N1         216.7540    52.4510     6.0980 N.pl3        1 THM507   0.0000
    10 C2         215.8540    51.2540     5.9480 C.2          1 THM507   0.0000
    11 O2         215.6540    50.7130     4.8670 O.2          1 THM507   0.0000
    12 N3         215.1630    50.6840     7.1060 N.pl3        1 THM507   0.0000
    13 C4         215.3730    51.2820     8.3810 C.2          1 THM507   0.0000
    14 O4         214.8400    50.8530     9.3880 O.2          1 THM507   0.0000
    15 C5         216.2640    52.4530     8.5330 C.2          1 THM507   0.0000
    16 C5M        216.4650    53.0540     9.9190 C.3          1 THM507   0.0000
    17 C6         216.9430    53.0200     7.3880 C.2          1 THM507   0.0000
    18 H5'        218.4243    50.2636     0.6644 H            1 THM507   0.0000
    19 H5'1       218.8860    50.5591     2.9093 H            1 THM507   0.0000
    20 H5'2       217.2818    50.6801     2.6294 H            1 THM507   0.0000
    21 H4'        218.2351    53.1752     2.3551 H            1 THM507   0.0000
    22 H3'        220.0776    51.9559     4.0402 H            1 THM507   0.0000
    23 H6         220.8935    53.8463     3.2376 H            1 THM507   0.0000
    24 H2'1       219.4285    53.4104     5.8325 H            1 THM507   0.0000
    25 H2'2       219.0947    51.8177     5.6961 H            1 THM507   0.0000
    26 H1'        217.3272    54.0396     5.2126 H            1 THM507   0.0000
    27 H10        214.5584    49.8941     7.0040 H            1 THM507   0.0000
    28 H5M1       217.0894    53.8327     9.8573 H            1 THM507   0.0000
    29 H5M2       215.5844    53.3606    10.2803 H            1 THM507   0.0000
    30 H5M3       216.8531    52.3630    10.5289 H            1 THM507   0.0000
    31 H14        217.5443    53.8107     7.5033 H            1 THM507   0.0000
@<TRIPOS>BOND
     1    1    2       1
     2    2    3       1
     3    3    4       1
     4    3    5       1
     5    4    8       1
     6    5    6       1
     7    5    7       1
     8    7    8       1
     9    8    9       1
    10    9   10       1
    11    9   17       1
    12   10   11       2
    13   10   12       1
    14   12   13       1
    15   13   14       2
    16   13   15       1
    17   15   16       1
    18   15   17       2
    19    1   18       1
    20    2   19       1
    21    2   20       1
    22    3   21       1
    23    5   22       1
    24    6   23       1
    25    7   24       1
    26    7   25       1
    27    8   26       1
    28   12   27       1
    29   16   28       1
    30   16   29       1
    31   16   30       1
    32   17   31       1
@<TRIPOS>SUBSTRUCTURE
     1 THM507      1 GROUP             4 A     THM     0 **** THM A 507
