@<TRIPOS>MOLECULE
4xiv_ACP_1_ligand
   45    47     1     0     0
SMALL
NO_CHARGES


@<TRIPOS>ATOM
     1 PG           3.8620    35.1310   -12.1860 P.3          1 ACP601   0.0000
     2 O1G          2.8000    34.6770   -13.1750 O.co2        1 ACP601   0.0000
     3 O2G          5.0640    35.6850   -12.8730 O.co2        1 ACP601  -1.0000
     4 O3G          3.3290    35.9330   -11.0100 O.co2        1 ACP601  -1.0000
     5 PB           5.6630    32.9730   -11.4140 P.3          1 ACP601   0.0000
     6 O1B          6.0300    32.9240   -12.8300 O.co2        1 ACP601   0.0000
     7 O2B          6.6960    33.6490   -10.5780 O.co2        1 ACP601  -1.0000
     8 C3B          4.3450    33.8780   -11.1010 C.3          1 ACP601   0.0000
     9 PA           5.9050    30.4530    -9.6650 P.3          1 ACP601   0.0000
    10 O1A          7.3200    30.0300    -9.4660 O.co2        1 ACP601   0.0000
    11 O2A          5.2440    31.1890    -8.5210 O.co2        1 ACP601  -1.0000
    12 O3A          5.7060    31.3820   -10.9530 O.3          1 ACP601   0.0000
    13 O5'          4.7600    29.3840    -9.9990 O.3          1 ACP601   0.0000
    14 C5'          5.1810    28.3190   -10.8750 C.3          1 ACP601   0.0000
    15 C4'          4.3050    27.2860   -11.6340 C.3          1 ACP601   0.0000
    16 O4'          3.4040    26.7470   -10.7100 O.3          1 ACP601   0.0000
    17 C3'          3.4970    28.2880   -12.4040 C.3          1 ACP601   0.0000
    18 O3'          4.1980    28.7800   -13.5210 O.3          1 ACP601   0.0000
    19 C2'          2.1760    27.5430   -12.6060 C.3          1 ACP601   0.0000
    20 O2'          2.2230    26.7440   -13.7690 O.3          1 ACP601   0.0000
    21 C1'          2.1200    26.8300   -11.3240 C.3          1 ACP601   0.0000
    22 N9           1.2270    27.3890   -10.2320 N.pl3        1 ACP601   0.0000
    23 C8           1.4820    28.1330    -9.1290 C.2          1 ACP601   0.0000
    24 N7           0.4590    28.4000    -8.3230 N.2          1 ACP601   0.0000
    25 C5          -0.5540    27.8520    -9.0070 C.ar         1 ACP601   0.0000
    26 C6          -1.9610    27.7840    -8.7860 C.ar         1 ACP601   0.0000
    27 N6          -2.6350    28.4270    -7.7870 N.pl3        1 ACP601   0.0000
    28 N1          -2.7380    27.0390    -9.6500 N.ar         1 ACP601   0.0000
    29 C2          -2.2050    26.5370   -10.7890 C.ar         1 ACP601   0.0000
    30 N3          -0.8880    26.5510   -11.0720 N.ar         1 ACP601   0.0000
    31 C4          -0.1120    27.2190   -10.1740 C.ar         1 ACP601   0.0000
    32 H3B1         3.5734    33.2456   -11.0325 H            1 ACP601   0.0000
    33 H3B2         4.5001    34.3120   -10.2135 H            1 ACP601   0.0000
    34 H5'1         5.7959    27.7630   -10.3157 H            1 ACP601   0.0000
    35 H5'2         5.7058    28.7774   -11.5923 H            1 ACP601   0.0000
    36 H4'          4.8057    26.6198   -12.1868 H            1 ACP601   0.0000
    37 H3'          3.3171    29.0615   -11.7962 H            1 ACP601   0.0000
    38 H7           3.6282    29.4429   -14.0067 H            1 ACP601   0.0000
    39 H2'          1.4207    28.1954   -12.6686 H            1 ACP601   0.0000
    40 H9           1.3512    26.2672   -13.8813 H            1 ACP601   0.0000
    41 H1'          1.8159    25.8962   -11.5124 H            1 ACP601   0.0000
    42 H11          2.4028    28.4679    -8.9291 H            1 ACP601   0.0000
    43 H12         -3.6262    28.3231    -7.7053 H            1 ACP601   0.0000
    44 H13         -2.1372    29.0016    -7.1374 H            1 ACP601   0.0000
    45 H14         -2.8259    26.1318   -11.4600 H            1 ACP601   0.0000
@<TRIPOS>BOND
     1    1    2      ar
     2    1    3      ar
     3    1    4      ar
     4    1    8       1
     5    5    6      ar
     6    5    7      ar
     7    5    8       1
     8    5   12       1
     9    9   10      ar
    10    9   11      ar
    11    9   12       1
    12    9   13       1
    13   13   14       1
    14   14   15       1
    15   15   16       1
    16   15   17       1
    17   16   21       1
    18   17   18       1
    19   17   19       1
    20   19   20       1
    21   19   21       1
    22   21   22       1
    23   22   23       1
    24   22   31       1
    25   23   24       2
    26   24   25       1
    27   25   26      ar
    28   25   31      ar
    29   26   27       1
    30   26   28      ar
    31   28   29      ar
    32   29   30      ar
    33   30   31      ar
    34   29   45       1
    35   27   44       1
    36   27   43       1
    37    8   32       1
    38    8   33       1
    39   23   42       1
    40   14   34       1
    41   14   35       1
    42   15   36       1
    43   17   37       1
    44   18   38       1
    45   19   39       1
    46   20   40       1
    47   21   41       1
@<TRIPOS>SUBSTRUCTURE
     1 ACP601      1 GROUP             4 A     ACP     0 **** ACP A 601
