@<TRIPOS>MOLECULE
2y9x_0TR_4_ligand
   15    15     1     0     0
SMALL
NO_CHARGES


@<TRIPOS>ATOM
     1 CA1         21.5770     2.3240   -93.1050 C.2          1 0TR410   0.0000
     2 OA1         20.4290     2.3930   -93.6260 O.3          1 0TR410   0.0000
     3 CA2         22.6600     2.9090   -93.8740 C.2          1 0TR410   0.0000
     4 OA2         22.2920     3.4430   -95.0340 O.2          1 0TR410   0.0000
     5 CA3         24.0080     2.9810   -93.5680 C.2          1 0TR410   0.0000
     6 CB3         24.6680     2.5460   -92.4940 C.2          1 0TR410   0.0000
     7 CA5         22.8970     1.5230   -91.1070 C.2          1 0TR410   0.0000
     8 CA6         21.7550     1.7090   -91.8480 C.2          1 0TR410   0.0000
     9 CAE         24.2240     1.9050   -91.4010 C.2          1 0TR410   0.0000
    10 HA3         24.5749     3.4286   -94.2596 H            1 0TR410   0.0000
    11 HB3         25.6516     2.7261   -92.5044 H            1 0TR410   0.0000
    12 HA5         22.7702     1.0496   -90.2353 H            1 0TR410   0.0000
    13 HA6         20.9190     1.3525   -91.4308 H            1 0TR410   0.0000
    14 HAE         24.9134     1.6709   -90.7155 H            1 0TR410   0.0000
    15 HA1         19.6391     2.0090   -93.1479 H            1 0TR410   0.0000
@<TRIPOS>BOND
     1    1    2       1
     2    1    3       1
     3    1    8       2
     4    3    4       2
     5    3    5       1
     6    5    6       2
     7    6    9       1
     8    7    8       1
     9    7    9       2
    10    2   15       1
    11    5   10       1
    12    6   11       1
    13    7   12       1
    14    8   13       1
    15    9   14       1
@<TRIPOS>SUBSTRUCTURE
     1 0TR410      1 GROUP             4 D     0TR     0 **** 0TR D 410
