@<TRIPOS>MOLECULE
4g5d_NDP_1_ligand
   73    77     1     0     0
SMALL
NO_CHARGES


@<TRIPOS>ATOM
     1 PA          32.3220    12.5460    14.3140 P.3          1 NDP301   0.0000
     2 O1A         32.9880    12.5550    12.9620 O.co2        1 NDP301   0.0000
     3 O2A         31.7650    11.3030    14.9040 O.co2        1 NDP301  -1.0000
     4 O5B         31.1590    13.6680    14.2520 O.3          1 NDP301   0.0000
     5 C5B         30.6430    14.1380    15.4970 C.3          1 NDP301   0.0000
     6 C4B         29.5370    15.1570    15.2670 C.3          1 NDP301   0.0000
     7 O4B         28.4330    14.5880    14.5390 O.3          1 NDP301   0.0000
     8 C3B         28.9410    15.6850    16.5630 C.3          1 NDP301   0.0000
     9 O3B         28.7300    17.0920    16.3330 O.3          1 NDP301   0.0000
    10 C2B         27.6140    14.9640    16.7290 C.3          1 NDP301   0.0000
    11 O2B         26.6680    15.8120    17.3820 O.3          1 NDP301   0.0000
    12 C1B         27.2110    14.7400    15.2830 C.3          1 NDP301   0.0000
    13 N9A         26.4680    13.4930    15.0060 N.pl3        1 NDP301   0.0000
    14 C8A         26.8170    12.2540    15.4050 C.2          1 NDP301   0.0000
    15 N7A         25.9480    11.3260    14.9330 N.2          1 NDP301   0.0000
    16 C5A         25.0030    11.9850    14.2250 C.ar         1 NDP301   0.0000
    17 C6A         23.7990    11.5910    13.4700 C.ar         1 NDP301   0.0000
    18 N6A         23.4170    10.2960    13.3880 N.pl3        1 NDP301   0.0000
    19 N1A         23.0920    12.5770    12.8730 N.ar         1 NDP301   0.0000
    20 C2A         23.4490    13.8750    12.9510 C.ar         1 NDP301   0.0000
    21 N3A         24.5410    14.3010    13.6220 N.ar         1 NDP301   0.0000
    22 C4A         25.3410    13.4100    14.2710 C.ar         1 NDP301   0.0000
    23 O3          33.2290    13.4120    15.3320 O.3          1 NDP301   0.0000
    24 PN          34.5840    13.2030    16.1720 P.3          1 NDP301   0.0000
    25 O1N         35.5300    14.2500    15.6340 O.co2        1 NDP301   0.0000
    26 O2N         34.1840    13.3060    17.6240 O.co2        1 NDP301  -1.0000
    27 O5D         35.2420    11.7500    15.8980 O.3          1 NDP301   0.0000
    28 C5D         34.7860    10.5920    16.5780 C.3          1 NDP301   0.0000
    29 C4D         35.7750    10.1920    17.6640 C.3          1 NDP301   0.0000
    30 O4D         37.0960    10.0160    17.1400 O.3          1 NDP301   0.0000
    31 C3D         36.0050    11.2490    18.7250 C.3          1 NDP301   0.0000
    32 O3D         34.9050    11.4230    19.6270 O.3          1 NDP301   0.0000
    33 C2D         37.2700    10.7350    19.3720 C.3          1 NDP301   0.0000
    34 O2D         36.9130     9.6120    20.1970 O.3          1 NDP301   0.0000
    35 C1D         38.0600    10.2390    18.1740 C.3          1 NDP301   0.0000
    36 N1N         39.0200    11.2720    17.7540 N.ar         1 NDP301   1.0000
    37 C2N         40.3270    11.0330    17.9030 C.ar         1 NDP301   0.0000
    38 C3N         41.2810    11.9830    17.5250 C.ar         1 NDP301   0.0000
    39 C7N         42.7400    11.7090    17.6440 C.2          1 NDP301   0.0000
    40 O7N         43.5240    12.6510    17.5350 O.2          1 NDP301   0.0000
    41 N7N         43.1440    10.4430    17.8050 N.am         1 NDP301   0.0000
    42 C4N         40.8800    13.3150    16.9430 C.ar         1 NDP301   0.0000
    43 C5N         39.4440    13.4600    16.8490 C.ar         1 NDP301   0.0000
    44 C6N         38.5840    12.4430    17.2460 C.ar         1 NDP301   0.0000
    45 P2B         26.0900    15.5320    18.8540 P.3          1 NDP301   0.0000
    46 O1X         24.9580    14.5590    18.6820 O.co2        1 NDP301   0.0000
    47 O2X         27.2590    14.9730    19.6630 O.co2        1 NDP301  -1.0000
    48 O3X         25.6480    16.9150    19.3040 O.co2        1 NDP301  -1.0000
    49 H5B1        31.3813    14.5661    16.0183 H            1 NDP301   0.0000
    50 H5B2        30.2753    13.3646    16.0134 H            1 NDP301   0.0000
    51 H4B         29.9078    15.9249    14.7447 H            1 NDP301   0.0000
    52 H3B         29.5483    15.5249    17.3411 H            1 NDP301   0.0000
    53 H5          28.3358    17.5083    17.1523 H            1 NDP301   0.0000
    54 H2B         27.7264    14.0979    17.2160 H            1 NDP301   0.0000
    55 H1B         26.6979    15.5282    14.9434 H            1 NDP301   0.0000
    56 H8A         27.6124    12.0462    15.9744 H            1 NDP301   0.0000
    57 H6A1        22.5975    10.0482    12.8713 H            1 NDP301   0.0000
    58 H6A2        23.9541     9.5864    13.8440 H            1 NDP301   0.0000
    59 H2A         22.8781    14.5545    12.4901 H            1 NDP301   0.0000
    60 H5D1        34.6926     9.8411    15.9243 H            1 NDP301   0.0000
    61 H5D2        33.8975    10.7831    16.9953 H            1 NDP301   0.0000
    62 H4D         35.4711     9.3435    18.0973 H            1 NDP301   0.0000
    63 H3D         36.2000    12.1218    18.2777 H            1 NDP301   0.0000
    64 H16         34.2834    12.1174    19.2646 H            1 NDP301   0.0000
    65 H2D         37.7546    11.4456    19.8821 H            1 NDP301   0.0000
    66 H18         37.6810     8.9731    20.2409 H            1 NDP301   0.0000
    67 H1D         38.5366     9.3887    18.3971 H            1 NDP301   0.0000
    68 H2N         40.6270    10.1614    18.2907 H            1 NDP301   0.0000
    69 H7N1        44.1189    10.2359    17.8871 H            1 NDP301   0.0000
    70 H7N2        42.4709     9.7044    17.8432 H            1 NDP301   0.0000
    71 H4N         41.5316    14.0169    16.6553 H            1 NDP301   0.0000
    72 H5N         39.0613    14.3113    16.4902 H            1 NDP301   0.0000
    73 H6N         37.5988    12.5856    17.1509 H            1 NDP301   0.0000
@<TRIPOS>BOND
     1    1    2      ar
     2    1    3      ar
     3    1    4       1
     4    1   23       1
     5    4    5       1
     6    5    6       1
     7    6    7       1
     8    6    8       1
     9    7   12       1
    10    8    9       1
    11    8   10       1
    12   10   11       1
    13   10   12       1
    14   11   45       1
    15   12   13       1
    16   13   14       1
    17   13   22       1
    18   14   15       2
    19   15   16       1
    20   16   17      ar
    21   16   22      ar
    22   17   18       1
    23   17   19      ar
    24   19   20      ar
    25   20   21      ar
    26   21   22      ar
    27   23   24       1
    28   24   25      ar
    29   24   26      ar
    30   24   27       1
    31   27   28       1
    32   28   29       1
    33   29   30       1
    34   29   31       1
    35   30   35       1
    36   31   32       1
    37   31   33       1
    38   33   34       1
    39   33   35       1
    40   35   36       1
    41   36   37      ar
    42   36   44      ar
    43   37   38      ar
    44   38   39       1
    45   38   42      ar
    46   39   40       2
    47   39   41      am
    48   42   43      ar
    49   43   44      ar
    50   45   46      ar
    51   45   47      ar
    52   45   48      ar
    53   43   72       1
    54    5   49       1
    55    5   50       1
    56    6   51       1
    57    8   52       1
    58    9   53       1
    59   10   54       1
    60   12   55       1
    61   14   56       1
    62   18   57       1
    63   18   58       1
    64   20   59       1
    65   44   73       1
    66   28   60       1
    67   28   61       1
    68   29   62       1
    69   31   63       1
    70   32   64       1
    71   33   65       1
    72   34   66       1
    73   35   67       1
    74   37   68       1
    75   41   69       1
    76   41   70       1
    77   42   71       1
@<TRIPOS>SUBSTRUCTURE
     1 NDP301      1 GROUP             4 A     NDP     0 **** NDP A 301
