@<TRIPOS>MOLECULE
4ha6_PXM_1_ligand
   25    25     1     0     0
SMALL
NO_CHARGES


@<TRIPOS>ATOM
     1 N1         -31.6740     3.4480   -19.1860 N.ar         1 PXM609   0.0000
     2 C2         -30.4160     3.7350   -18.8570 C.ar         1 PXM609   0.0000
     3 C2A        -29.7080     3.0480   -17.7320 C.3          1 PXM609   0.0000
     4 C3         -29.7880     4.7100   -19.6170 C.ar         1 PXM609   0.0000
     5 O3         -28.4860     5.0460   -19.3190 O.3          1 PXM609   0.0000
     6 C4         -30.4480     5.3700   -20.6760 C.ar         1 PXM609   0.0000
     7 C5         -31.7970     5.0100   -20.9650 C.ar         1 PXM609   0.0000
     8 C5A        -32.6670     5.5820   -22.0670 C.3          1 PXM609   0.0000
     9 O5         -32.3730     6.8520   -22.5350 O.3          1 PXM609   0.0000
    10 C6         -32.3720     4.0150   -20.1670 C.ar         1 PXM609   0.0000
    11 C4A        -29.6650     6.4090   -21.4270 C.3          1 PXM609   0.0000
    12 N4         -28.9970     7.3590   -20.5860 N.4          1 PXM609   1.0000
    13 H2A1       -28.7786     3.4085   -17.6534 H            1 PXM609   0.0000
    14 H2A2       -30.2021     3.2111   -16.8781 H            1 PXM609   0.0000
    15 H2A3       -29.6701     2.0652   -17.9127 H            1 PXM609   0.0000
    16 H4         -28.0115     4.5893   -18.5665 H            1 PXM609   0.0000
    17 H5A1       -33.6063     5.6015   -21.7243 H            1 PXM609   0.0000
    18 H5A2       -32.6092     4.9574   -22.8458 H            1 PXM609   0.0000
    19 H7         -33.0216     7.1006   -23.2544 H            1 PXM609   0.0000
    20 H8         -33.3149     3.7276   -20.3351 H            1 PXM609   0.0000
    21 H4A1       -30.2946     6.9061   -22.0241 H            1 PXM609   0.0000
    22 H4A2       -28.9767     5.9428   -21.9827 H            1 PXM609   0.0000
    23 H11        -28.1651     7.6786   -21.0395 H            1 PXM609   0.0000
    24 H12        -29.6026     8.1360   -20.4144 H            1 PXM609   0.0000
    25 H13        -28.7575     6.9249   -19.7176 H            1 PXM609   0.0000
@<TRIPOS>BOND
     1    1    2      ar
     2    1   10      ar
     3    2    3       1
     4    2    4      ar
     5    4    5       1
     6    4    6      ar
     7    6    7      ar
     8    6   11       1
     9    7    8       1
    10    7   10      ar
    11    8    9       1
    12   11   12       1
    13    3   13       1
    14    3   14       1
    15    3   15       1
    16    5   16       1
    17    8   17       1
    18    8   18       1
    19    9   19       1
    20   10   20       1
    21   11   21       1
    22   11   22       1
    23   12   23       1
    24   12   24       1
    25   12   25       1
@<TRIPOS>SUBSTRUCTURE
     1 PXM609      1 GROUP             4 A     PXM     0 **** PXM A 609
