@<TRIPOS>MOLECULE
3n6n_BUP_1_ligand
   40    41     1     0     0
SMALL
NO_CHARGES


@<TRIPOS>ATOM
     1 BR           0.5640   -48.3040     7.1170 Br           1 BUP464   0.0000
     2 C1           1.7400   -47.2590     7.1260 C.2          1 BUP464   0.0000
     3 N1           4.2470   -46.7220     7.4670 N.pl3        1 BUP464   0.0000
     4 O1           3.4080   -49.0430     7.7590 O.2          1 BUP464   0.0000
     5 P1          -1.3600   -41.5030    10.0960 P.3          1 BUP464   0.0000
     6 C2           1.4660   -45.8150     6.8040 C.2          1 BUP464   0.0000
     7 N2           2.5630   -44.8350     6.8060 N.pl3        1 BUP464   0.0000
     8 O2           5.0310   -44.3630     7.1570 O.2          1 BUP464   0.0000
     9 P2          -1.2300   -38.6910     9.3140 P.3          1 BUP464   0.0000
    10 C3           3.9760   -45.2860     7.1460 C.2          1 BUP464   0.0000
    11 O3           1.4310   -42.8390     7.5110 O.3          1 BUP464   0.0000
    12 P3          -3.0430   -37.5790    11.2860 P.3          1 BUP464   0.0000
    13 C4           3.1470   -47.7010     7.4590 C.2          1 BUP464   0.0000
    14 O4           2.4760   -42.3840     4.3260 O.3          1 BUP464   0.0000
    15 C5           0.3180   -42.5820     5.3950 C.3          1 BUP464   0.0000
    16 O5           0.0340   -41.5310     4.4980 O.3          1 BUP464   0.0000
    17 C6           1.6630   -43.2120     5.1250 C.3          1 BUP464   0.0000
    18 O6          -0.7530   -42.4970     8.9140 O.3          1 BUP464   0.0000
    19 C7           2.3110   -43.4220     6.5000 C.3          1 BUP464   0.0000
    20 O7          -0.5880   -40.0320    10.0510 O.3          1 BUP464   0.0000
    21 C8           0.3990   -42.0550     6.8310 C.3          1 BUP464   0.0000
    22 O8          -1.0970   -42.1960    11.5750 O.co2        1 BUP464   0.0000
    23 C9          -0.9550   -42.2220     7.5450 C.3          1 BUP464   0.0000
    24 O9          -2.8000   -41.3350     9.9010 O.co2        1 BUP464  -1.0000
    25 O10         -2.7650   -38.3960     9.8680 O.3          1 BUP464   0.0000
    26 O11         -1.2630   -38.9090     7.6730 O.co2        1 BUP464   0.0000
    27 O12         -0.3750   -37.5390     9.6100 O.co2        1 BUP464  -1.0000
    28 O13         -3.7320   -36.1170    10.9400 O.co2        1 BUP464   0.0000
    29 O14         -1.6250   -37.3420    12.1020 O.co2        1 BUP464  -1.0000
    30 O15         -3.9580   -38.3540    12.1260 O.co2        1 BUP464  -1.0000
    31 H1           5.1766   -47.0174     7.6873 H            1 BUP464   0.0000
    32 H2           0.5351   -45.5205     6.5879 H            1 BUP464   0.0000
    33 H3           2.3214   -42.5962     3.3611 H            1 BUP464   0.0000
    34 H4          -0.3971   -43.2783     5.3331 H            1 BUP464   0.0000
    35 H5           0.7965   -41.4218     3.8603 H            1 BUP464   0.0000
    36 H6           1.5364   -44.0955     4.6741 H            1 BUP464   0.0000
    37 H7           3.1830   -42.9329     6.5180 H            1 BUP464   0.0000
    38 H8           0.6593   -41.0895     6.8222 H            1 BUP464   0.0000
    39 H9          -1.4838   -41.3783     7.4520 H            1 BUP464   0.0000
    40 H10         -1.4579   -42.9784     7.1268 H            1 BUP464   0.0000
@<TRIPOS>BOND
     1    1    2       1
     2    2    6       2
     3    2   13       1
     4    3   10       1
     5    3   13       1
     6    4   13       2
     7    5   18       1
     8    5   20       1
     9    5   22      ar
    10    5   24      ar
    11    6    7       1
    12    7   10       1
    13    7   19       1
    14    8   10       2
    15    9   20       1
    16    9   25       1
    17    9   26      ar
    18    9   27      ar
    19   11   19       1
    20   11   21       1
    21   12   25       1
    22   12   28      ar
    23   12   29      ar
    24   12   30      ar
    25   14   17       1
    26   15   16       1
    27   15   17       1
    28   15   21       1
    29   17   19       1
    30   18   23       1
    31   21   23       1
    32    3   31       1
    33    6   32       1
    34   14   33       1
    35   15   34       1
    36   16   35       1
    37   17   36       1
    38   19   37       1
    39   21   38       1
    40   23   40       1
    41   23   39       1
@<TRIPOS>SUBSTRUCTURE
     1 BUP464      1 GROUP             4 A     BUP     0 **** BUP A 464
