@<TRIPOS>MOLECULE
3hf6_LX0_1_ligand
   56    59     1     0     0
SMALL
NO_CHARGES


@<TRIPOS>ATOM
     1 O3          15.7660     5.8280    19.3850 O.co2        1 LX0401   0.0000
     2 C1          15.2430     5.1580    18.4630 C.2          1 LX0401   0.0000
     3 O2          15.4650     5.3890    17.2530 O.co2        1 LX0401  -1.0000
     4 C4          14.2970     4.0460    18.8170 C.3          1 LX0401   0.0000
     5 N5          14.4200     3.7060    20.2280 N.4          1 LX0401   1.0000
     6 C6          12.8890     4.5660    18.5400 C.3          1 LX0401   0.0000
     7 C7          11.8000     3.5370    18.7530 C.ar         1 LX0401   0.0000
     8 C12         10.8560     3.7370    19.7670 C.ar         1 LX0401   0.0000
     9 C11          9.8390     2.8030    19.9610 C.ar         1 LX0401   0.0000
    10 C10          9.7600     1.6670    19.1480 C.ar         1 LX0401   0.0000
    11 C9          10.6960     1.4780    18.1290 C.ar         1 LX0401   0.0000
    12 C8          11.7110     2.4150    17.9330 C.ar         1 LX0401   0.0000
    13 C13          8.6600     0.6830    19.3470 C.ar         1 LX0401   0.0000
    14 N18          7.6950     0.9280    20.2640 N.ar         1 LX0401   0.0000
    15 C17          6.6770     0.0520    20.4350 C.ar         1 LX0401   0.0000
    16 N16          6.6160    -1.0690    19.6780 N.ar         1 LX0401   0.0000
    17 C15          7.5790    -1.3140    18.7530 C.ar         1 LX0401   0.0000
    18 N19          7.5430    -2.4350    17.9930 N.pl3        1 LX0401   0.0000
    19 N14          8.5910    -0.4340    18.5890 N.ar         1 LX0401   0.0000
    20 N20          5.7140     0.3000    21.3590 N.pl3        1 LX0401   0.0000
    21 C21          5.6300     1.5680    22.0790 C.3          1 LX0401   0.0000
    22 C22          4.7050     1.3810    23.2870 C.3          1 LX0401   0.0000
    23 C23          5.1680     2.7030    21.2220 C.ar         1 LX0401   0.0000
    24 C28          4.7550     2.4880    19.8990 C.ar         1 LX0401   0.0000
    25 C27          4.3230     3.5190    19.0650 C.ar         1 LX0401   0.0000
    26 C26          4.2940     4.8190    19.5540 C.ar         1 LX0401   0.0000
    27 C32          3.8710     5.8840    18.7630 C.ar         1 LX0401   0.0000
    28 C31          3.8610     7.1700    19.3020 C.ar         1 LX0401   0.0000
    29 C30          4.2730     7.4030    20.6220 C.ar         1 LX0401   0.0000
    30 C29          4.7080     6.3660    21.4490 C.ar         1 LX0401   0.0000
    31 C25          4.7330     5.0680    20.9550 C.ar         1 LX0401   0.0000
    32 C24          5.1610     4.0000    21.7420 C.ar         1 LX0401   0.0000
    33 H1          14.4841     3.2424    18.2520 H            1 LX0401   0.0000
    34 H2          13.7853     2.9655    20.4490 H            1 LX0401   0.0000
    35 H3          15.3561     3.4110    20.4194 H            1 LX0401   0.0000
    36 H4          12.8489     4.8742    17.5895 H            1 LX0401   0.0000
    37 H5          12.7140     5.3397    19.1489 H            1 LX0401   0.0000
    38 H6          10.9108     4.5473    20.3505 H            1 LX0401   0.0000
    39 H7           9.1633     2.9457    20.6842 H            1 LX0401   0.0000
    40 H8          10.6388     0.6717    17.5403 H            1 LX0401   0.0000
    41 H9          12.3778     2.2802    17.2001 H            1 LX0401   0.0000
    42 H10          8.2590    -2.6029    17.3153 H            1 LX0401   0.0000
    43 H11          6.8005    -3.0946    18.1097 H            1 LX0401   0.0000
    44 H12          5.0380    -0.4108    21.5537 H            1 LX0401   0.0000
    45 H13          6.5432     1.7905    22.4206 H            1 LX0401   0.0000
    46 H14          4.6370     2.2419    23.7912 H            1 LX0401   0.0000
    47 H15          3.7965     1.1066    22.9718 H            1 LX0401   0.0000
    48 H16          5.0781     0.6725    23.8860 H            1 LX0401   0.0000
    49 H17          4.7710     1.5555    19.5382 H            1 LX0401   0.0000
    50 H18          4.0376     3.3248    18.1265 H            1 LX0401   0.0000
    51 H19          3.5779     5.7285    17.8197 H            1 LX0401   0.0000
    52 H20          3.5554     7.9377    18.7387 H            1 LX0401   0.0000
    53 H21          4.2547     8.3365    20.9802 H            1 LX0401   0.0000
    54 H22          4.9985     6.5555    22.3869 H            1 LX0401   0.0000
    55 H23          5.4638     4.1624    22.6811 H            1 LX0401   0.0000
    56 H24         14.2030     4.5081    20.7843 H            1 LX0401   0.0000
@<TRIPOS>BOND
     1    1    2      ar
     2    2    3      ar
     3    2    4       1
     4    4    5       1
     5    4    6       1
     6    6    7       1
     7    7    8      ar
     8    7   12      ar
     9    8    9      ar
    10    9   10      ar
    11   10   11      ar
    12   10   13       1
    13   11   12      ar
    14   13   14      ar
    15   13   19      ar
    16   14   15      ar
    17   15   16      ar
    18   15   20       1
    19   16   17      ar
    20   17   18       1
    21   17   19      ar
    22   20   21       1
    23   21   22       1
    24   21   23       1
    25   23   24      ar
    26   23   32      ar
    27   24   25      ar
    28   25   26      ar
    29   26   27      ar
    30   26   31      ar
    31   27   28      ar
    32   28   29      ar
    33   29   30      ar
    34   30   31      ar
    35   31   32      ar
    36   32   55       1
    37    4   33       1
    38    5   34       1
    39    5   35       1
    40    6   36       1
    41    6   37       1
    42    8   38       1
    43    9   39       1
    44   11   40       1
    45   12   41       1
    46   18   42       1
    47   18   43       1
    48   20   44       1
    49   21   45       1
    50   22   46       1
    51   22   47       1
    52   22   48       1
    53   24   49       1
    54   25   50       1
    55   27   51       1
    56   28   52       1
    57   29   53       1
    58   30   54       1
    59    5   56       1
@<TRIPOS>SUBSTRUCTURE
     1 LX0401      1 GROUP             4 A     LX0     0 **** LX0 A 401
