@<TRIPOS>MOLECULE
5bxj_NPO_1_ligand
   15    15     1     0     0
SMALL
NO_CHARGES


@<TRIPOS>ATOM
     1 C1          -9.2740   -11.9330   -17.0490 C.ar         1 NPO201   0.0000
     2 C2          -9.1310   -12.2790   -18.3840 C.ar         1 NPO201   0.0000
     3 C3          -8.4040   -11.4890   -19.2620 C.ar         1 NPO201   0.0000
     4 C4          -7.8000   -10.3300   -18.8090 C.ar         1 NPO201   0.0000
     5 C5          -7.9390    -9.9720   -17.4790 C.ar         1 NPO201   0.0000
     6 C6          -8.6630   -10.7700   -16.6000 C.ar         1 NPO201   0.0000
     7 OH          -7.0590    -9.5250   -19.6940 O.3          1 NPO201   0.0000
     8 N1         -10.0400   -12.7610   -16.1700 N.2          1 NPO201   1.0000
     9 O2          -9.4700   -13.3850   -15.2880 O.co2        1 NPO201   0.0000
    10 O3         -11.4110   -12.8730   -16.2990 O.co2        1 NPO201  -1.0000
    11 H1          -9.5614   -13.1163   -18.7211 H            1 NPO201   0.0000
    12 H2          -8.3166   -11.7570   -20.2215 H            1 NPO201   0.0000
    13 H3          -7.5140    -9.1300   -17.1466 H            1 NPO201   0.0000
    14 H4          -8.7440   -10.5047   -15.6392 H            1 NPO201   0.0000
    15 HH          -6.9677    -9.7902   -20.6539 H            1 NPO201   0.0000
@<TRIPOS>BOND
     1    1    2      ar
     2    1    6      ar
     3    1    8       1
     4    2    3      ar
     5    3    4      ar
     6    4    5      ar
     7    4    7       1
     8    5    6      ar
     9    8    9      ar
    10    8   10      ar
    11    2   11       1
    12    3   12       1
    13    5   13       1
    14    6   14       1
    15    7   15       1
@<TRIPOS>SUBSTRUCTURE
     1 NPO201      1 GROUP             4 A     NPO     0 **** NPO A 201
