@<TRIPOS>MOLECULE
3f1k_NAP_1_ligand
   73    77     1     0     0
SMALL
NO_CHARGES


@<TRIPOS>ATOM
     1 PA          35.9710    22.4720    36.4160 P.3          1 NAP300   0.0000
     2 O1A         36.1600    22.1700    37.8550 O.co2        1 NAP300   0.0000
     3 O2A         37.0690    21.9290    35.5830 O.co2        1 NAP300  -1.0000
     4 O5B         35.7130    24.0460    36.1850 O.3          1 NAP300   0.0000
     5 C5B         34.5040    24.4450    35.5510 C.3          1 NAP300   0.0000
     6 C4B         34.7420    25.3890    34.3710 C.3          1 NAP300   0.0000
     7 O4B         33.9630    26.5670    34.5300 O.3          1 NAP300   0.0000
     8 C3B         36.2090    25.8150    34.2360 C.3          1 NAP300   0.0000
     9 O3B         36.7780    25.4300    32.9940 O.3          1 NAP300   0.0000
    10 C2B         36.1780    27.3270    34.3760 C.3          1 NAP300   0.0000
    11 O2B         37.1180    27.9780    33.5260 O.3          1 NAP300   0.0000
    12 C1B         34.7180    27.6550    34.0490 C.3          1 NAP300   0.0000
    13 N9A         34.3960    28.9470    34.6630 N.pl3        1 NAP300   0.0000
    14 C8A         34.2080    29.2250    35.9940 C.2          1 NAP300   0.0000
    15 N7A         33.9700    30.5490    36.1170 N.2          1 NAP300   0.0000
    16 C5A         34.0190    31.1090    34.8820 C.ar         1 NAP300   0.0000
    17 C6A         33.8590    32.4120    34.4360 C.ar         1 NAP300   0.0000
    18 N6A         33.6010    33.3730    35.3180 N.pl3        1 NAP300   0.0000
    19 N1A         33.9730    32.6860    33.0790 N.ar         1 NAP300   0.0000
    20 C2A         34.2450    31.6780    32.1670 C.ar         1 NAP300   0.0000
    21 N3A         34.4050    30.3820    32.6210 N.ar         1 NAP300   0.0000
    22 C4A         34.2930    30.1120    33.9530 C.ar         1 NAP300   0.0000
    23 O3          34.5470    21.9620    35.8780 O.3          1 NAP300   0.0000
    24 PN          33.8080    20.5470    35.7330 P.3          1 NAP300   0.0000
    25 O1N         34.0230    19.7440    36.9660 O.co2        1 NAP300   0.0000
    26 O2N         34.1150    20.0700    34.3650 O.co2        1 NAP300  -1.0000
    27 O5D         32.2810    21.0450    35.7710 O.3          1 NAP300   0.0000
    28 C5D         31.5800    21.4260    34.6090 C.3          1 NAP300   0.0000
    29 C4D         30.1080    21.4460    34.9740 C.3          1 NAP300   0.0000
    30 O4D         29.8390    20.2450    35.6600 O.3          1 NAP300   0.0000
    31 C3D         29.7360    22.5760    35.9430 C.3          1 NAP300   0.0000
    32 O3D         28.7460    23.4330    35.3890 O.3          1 NAP300   0.0000
    33 C2D         29.2100    21.8450    37.1690 C.3          1 NAP300   0.0000
    34 O2D         28.1100    22.5250    37.7290 O.3          1 NAP300   0.0000
    35 C1D         28.8290    20.4730    36.6210 C.3          1 NAP300   0.0000
    36 N1N         28.8070    19.4060    37.6470 N.ar         1 NAP300   1.0000
    37 C2N         29.8060    18.4670    37.6680 C.ar         1 NAP300   0.0000
    38 C3N         29.8220    17.4490    38.6170 C.ar         1 NAP300   0.0000
    39 C7N         31.1480    16.8200    38.9570 C.2          1 NAP300   0.0000
    40 O7N         31.2920    16.1350    40.1830 O.2          1 NAP300   0.0000
    41 N7N         32.1590    16.9230    38.0950 N.am         1 NAP300   0.0000
    42 C4N         28.7780    17.3830    39.5420 C.ar         1 NAP300   0.0000
    43 C5N         27.7520    18.3280    39.5170 C.ar         1 NAP300   0.0000
    44 C6N         27.7770    19.3380    38.5540 C.ar         1 NAP300   0.0000
    45 P2B         38.6170    28.3860    34.0300 P.3          1 NAP300   0.0000
    46 O1X         39.2100    29.3850    33.0610 O.co2        1 NAP300   0.0000
    47 O2X         39.5130    27.1570    34.0930 O.co2        1 NAP300  -1.0000
    48 O3X         38.5500    29.0460    35.3930 O.co2        1 NAP300  -1.0000
    49 H5B1        33.9287    24.9112    36.2231 H            1 NAP300   0.0000
    50 H5B2        34.0325    23.6285    35.2178 H            1 NAP300   0.0000
    51 H4B         34.4615    24.9287    33.5287 H            1 NAP300   0.0000
    52 H3B         36.7420    25.4207    34.9846 H            1 NAP300   0.0000
    53 H5          37.0852    26.2442    32.5014 H            1 NAP300   0.0000
    54 H2B         36.3666    27.5741    35.3265 H            1 NAP300   0.0000
    55 H1B         34.6075    27.7225    33.0574 H            1 NAP300   0.0000
    56 H8A         34.2414    28.5626    36.7424 H            1 NAP300   0.0000
    57 H6A1        33.4835    34.3168    35.0091 H            1 NAP300   0.0000
    58 H6A2        33.5245    33.1519    36.2903 H            1 NAP300   0.0000
    59 H2A         34.3246    31.8859    31.1921 H            1 NAP300   0.0000
    60 H5D1        31.7442    20.7662    33.8757 H            1 NAP300   0.0000
    61 H5D2        31.8736    22.3346    34.3118 H            1 NAP300   0.0000
    62 H4D         29.5487    21.5032    34.1470 H            1 NAP300   0.0000
    63 H3D         30.5508    23.1039    36.1824 H            1 NAP300   0.0000
    64 H16         29.0933    23.8416    34.5449 H            1 NAP300   0.0000
    65 H2D         29.9368    21.7516    37.8495 H            1 NAP300   0.0000
    66 H18         27.3761    22.5858    37.0525 H            1 NAP300   0.0000
    67 H1D         27.9385    20.5253    36.1691 H            1 NAP300   0.0000
    68 H2N         30.5376    18.5146    36.9879 H            1 NAP300   0.0000
    69 H7N1        33.0437    16.5094    38.3102 H            1 NAP300   0.0000
    70 H7N2        32.0330    17.4139    37.2329 H            1 NAP300   0.0000
    71 H4N         28.7657    16.6540    40.2264 H            1 NAP300   0.0000
    72 H5N         27.0066    18.2822    40.1820 H            1 NAP300   0.0000
    73 H6N         27.0419    20.0153    38.5240 H            1 NAP300   0.0000
@<TRIPOS>BOND
     1    1    2      ar
     2    1    3      ar
     3    1    4       1
     4    1   23       1
     5    4    5       1
     6    5    6       1
     7    6    7       1
     8    6    8       1
     9    7   12       1
    10    8    9       1
    11    8   10       1
    12   10   11       1
    13   10   12       1
    14   11   45       1
    15   12   13       1
    16   13   14       1
    17   13   22       1
    18   14   15       2
    19   15   16       1
    20   16   17      ar
    21   16   22      ar
    22   17   18       1
    23   17   19      ar
    24   19   20      ar
    25   20   21      ar
    26   21   22      ar
    27   23   24       1
    28   24   25      ar
    29   24   26      ar
    30   24   27       1
    31   27   28       1
    32   28   29       1
    33   29   30       1
    34   29   31       1
    35   30   35       1
    36   31   32       1
    37   31   33       1
    38   33   34       1
    39   33   35       1
    40   35   36       1
    41   36   37      ar
    42   36   44      ar
    43   37   38      ar
    44   38   39       1
    45   38   42      ar
    46   39   40       2
    47   39   41      am
    48   42   43      ar
    49   43   44      ar
    50   45   46      ar
    51   45   47      ar
    52   45   48      ar
    53   43   72       1
    54    5   49       1
    55    5   50       1
    56    6   51       1
    57    8   52       1
    58    9   53       1
    59   10   54       1
    60   12   55       1
    61   14   56       1
    62   18   57       1
    63   18   58       1
    64   20   59       1
    65   44   73       1
    66   28   60       1
    67   28   61       1
    68   29   62       1
    69   31   63       1
    70   32   64       1
    71   33   65       1
    72   34   66       1
    73   35   67       1
    74   37   68       1
    75   41   69       1
    76   41   70       1
    77   42   71       1
@<TRIPOS>SUBSTRUCTURE
     1 NAP300      1 GROUP             4 A     NAP     0 **** NAP A 300
