@<TRIPOS>MOLECULE
3m50_EBT_1_ligand
   46    46     1     0     0
SMALL
NO_CHARGES


@<TRIPOS>ATOM
     1 C           -1.3560   -33.6010     8.5950 C.2          1 EBT241   0.0000
     2 N           -0.7150   -35.9700     9.1100 N.am         1 EBT241   0.0000
     3 O           -1.0710   -33.9180     7.4160 O.co2        1 EBT241   0.0000
     4 CA          -1.0710   -34.6420     9.6910 C.3          1 EBT241   0.0000
     5 CB           0.0150   -34.0840    10.6370 C.3          1 EBT241   0.0000
     6 CG          -0.6060   -32.8930    11.4090 C.3          1 EBT241   0.0000
     7 OAA         -2.2950   -39.0780     8.1300 O.3          1 EBT241   0.0000
     8 OAB         -2.8410   -36.7910     9.1090 O.2          1 EBT241   0.0000
     9 NAF         -0.4240   -38.5780    10.6410 N.4          1 EBT241   1.0000
    10 CAJ         -0.1210   -38.9190     9.2410 C.3          1 EBT241   0.0000
    11 CAK         -1.1440   -38.2420     8.3000 C.3          1 EBT241   0.0000
    12 CAL          1.3220   -38.4880     8.9230 C.3          1 EBT241   0.0000
    13 CAM         -1.6400   -36.9190     8.8800 C.2          1 EBT241   0.0000
    14 CAP          2.2160   -39.6730     8.5090 C.ar         1 EBT241   0.0000
    15 CAR          2.1170   -40.2180     7.2300 C.ar         1 EBT241   0.0000
    16 CAS          3.1350   -40.1980     9.4100 C.ar         1 EBT241   0.0000
    17 CAT          2.9220   -41.2800     6.8420 C.ar         1 EBT241   0.0000
    18 CAU          3.9380   -41.2620     9.0190 C.ar         1 EBT241   0.0000
    19 CAV          3.8380   -41.8030     7.7390 C.ar         1 EBT241   0.0000
    20 CD1         -0.5540   -33.0780    12.9450 C.3          1 EBT241   0.0000
    21 CD2          0.0020   -31.5510    10.9600 C.3          1 EBT241   0.0000
    22 OXT         -1.8370   -32.5010     8.9690 O.co2        1 EBT241  -1.0000
    23 H1           0.2406   -36.1600     8.8848 H            1 EBT241   0.0000
    24 HA          -1.9085   -34.7584    10.2248 H            1 EBT241   0.0000
    25 HB1          0.8031   -33.7728    10.1059 H            1 EBT241   0.0000
    26 HB2          0.3051   -34.7932    11.2796 H            1 EBT241   0.0000
    27 HG          -1.5737   -32.8650    11.1584 H            1 EBT241   0.0000
    28 HAA         -2.1787   -39.9173     8.6610 H            1 EBT241   0.0000
    29 HAF1         0.2415   -39.0192    11.2431 H            1 EBT241   0.0000
    30 HAF2        -0.3756   -37.5864    10.7605 H            1 EBT241   0.0000
    31 HAJ         -0.1910   -39.9104     9.1303 H            1 EBT241   0.0000
    32 HAK         -0.7187   -38.0765     7.4102 H            1 EBT241   0.0000
    33 HAL1         1.7149   -38.0591     9.7364 H            1 EBT241   0.0000
    34 HAL2         1.3009   -37.8256     8.1741 H            1 EBT241   0.0000
    35 HAR          1.4563   -39.8383     6.5824 H            1 EBT241   0.0000
    36 HAS          3.2172   -39.8140    10.3297 H            1 EBT241   0.0000
    37 HAT          2.8411   -41.6642     5.9223 H            1 EBT241   0.0000
    38 HAU          4.5975   -41.6452     9.6657 H            1 EBT241   0.0000
    39 HAV          4.4254   -42.5660     7.4692 H            1 EBT241   0.0000
    40 HD11        -0.9664   -32.2834    13.3906 H            1 EBT241   0.0000
    41 HD12        -1.0599   -33.9024    13.1988 H            1 EBT241   0.0000
    42 HD13         0.3979   -33.1677    13.2379 H            1 EBT241   0.0000
    43 HD21        -0.4191   -30.8050    11.4760 H            1 EBT241   0.0000
    44 HD22         0.9876   -31.5584    11.1290 H            1 EBT241   0.0000
    45 HD23        -0.1677   -31.4183     9.9835 H            1 EBT241   0.0000
    46 HAF3        -1.3437   -38.8968    10.8702 H            1 EBT241   0.0000
@<TRIPOS>BOND
     1    1    3      ar
     2    1    4       1
     3    1   22      ar
     4    2    4       1
     5    2   13      am
     6    4    5       1
     7    5    6       1
     8    6   20       1
     9    6   21       1
    10    7   11       1
    11    8   13       2
    12    9   10       1
    13   10   11       1
    14   10   12       1
    15   11   13       1
    16   12   14       1
    17   14   15      ar
    18   14   16      ar
    19   15   17      ar
    20   16   18      ar
    21   17   19      ar
    22   18   19      ar
    23    2   23       1
    24   21   45       1
    25    4   24       1
    26    5   25       1
    27    5   26       1
    28    6   27       1
    29    7   28       1
    30    9   29       1
    31    9   30       1
    32   10   31       1
    33   11   32       1
    34   12   33       1
    35   12   34       1
    36   15   35       1
    37   16   36       1
    38   17   37       1
    39   18   38       1
    40   19   39       1
    41   20   40       1
    42   20   41       1
    43   20   42       1
    44   21   43       1
    45   21   44       1
    46    9   46       1
@<TRIPOS>SUBSTRUCTURE
     1 EBT241      1 GROUP             4 A     EBT     0 **** EBT A 241
