@<TRIPOS>MOLECULE
2ykv_IK2_2_ligand
   34    34     1     0     0
SMALL
NO_CHARGES


@<TRIPOS>ATOM
     1 N1          39.1380    78.8900    24.5800 N.ar         1 IK21447   1.0000
     2 C2          39.7360    79.3440    23.4720 C.ar         1 IK21447   0.0000
     3 C2A         41.1280    78.7860    23.0060 C.3          1 IK21447   0.0000
     4 C3          39.0910    80.3440    22.7550 C.ar         1 IK21447   0.0000
     5 O3          39.6340    80.8630    21.6400 O.3          1 IK21447   0.0000
     6 C4          37.8650    80.8540    23.1480 C.ar         1 IK21447   0.0000
     7 C4A         37.3520    81.9090    22.1660 C.3          1 IK21447   0.0000
     8 N4A         36.5160    82.9110    22.7060 N.3          1 IK21447   0.0000
     9 OX          36.1240    83.7860    21.5940 O.3          1 IK21447   0.0000
    10 C1'         35.4580    84.9600    22.0600 C.3          1 IK21447   0.0000
    11 C2'         34.5520    85.5480    20.9980 C.2          1 IK21447   0.0000
    12 O1'         33.7780    86.4280    21.3960 O.co2        1 IK21447   0.0000
    13 O2'         34.6760    85.1200    19.8260 O.co2        1 IK21447  -1.0000
    14 C5          37.2630    80.3170    24.3100 C.ar         1 IK21447   0.0000
    15 C6          37.9470    79.3210    24.9960 C.ar         1 IK21447   0.0000
    16 C5A         35.9060    80.6980    24.9330 C.3          1 IK21447   0.0000
    17 O4P         34.8680    80.1620    24.0860 O.3          1 IK21447   0.0000
    18 P           33.4160    80.8950    24.0780 P.3          1 IK21447   0.0000
    19 O1P         32.9720    81.1130    25.5970 O.co2        1 IK21447   0.0000
    20 O2P         33.6740    82.3510    23.5640 O.co2        1 IK21447  -1.0000
    21 O3P         32.4200    80.1170    23.2810 O.co2        1 IK21447  -1.0000
    22 H2A1        41.4067    79.2468    22.1634 H            1 IK21447   0.0000
    23 H2A2        41.8095    78.9531    23.7184 H            1 IK21447   0.0000
    24 H2A3        41.0541    77.8027    22.8394 H            1 IK21447   0.0000
    25 H4          40.5182    80.5297    21.3126 H            1 IK21447   0.0000
    26 H4A1        36.8376    81.4355    21.4510 H            1 IK21447   0.0000
    27 H4A2        38.1470    82.3608    21.7611 H            1 IK21447   0.0000
    28 H4A         35.7053    82.4963    23.1193 H            1 IK21447   0.0000
    29 H1'1        36.1435    85.6419    22.3152 H            1 IK21447   0.0000
    30 H1'2        34.9079    84.7243    22.8612 H            1 IK21447   0.0000
    31 H10         37.5387    78.9204    25.8162 H            1 IK21447   0.0000
    32 H5A1        35.8228    81.6932    24.9854 H            1 IK21447   0.0000
    33 H5A2        35.8314    80.3085    25.8510 H            1 IK21447   0.0000
    34 H13         39.6076    78.1934    25.1224 H            1 IK21447   0.0000
@<TRIPOS>BOND
     1    1    2      ar
     2    1   15      ar
     3    2    3       1
     4    2    4      ar
     5    4    5       1
     6    4    6      ar
     7    6    7       1
     8    6   14      ar
     9    7    8       1
    10    8    9       1
    11    9   10       1
    12   10   11       1
    13   11   12      ar
    14   11   13      ar
    15   14   15      ar
    16   14   16       1
    17   16   17       1
    18   17   18       1
    19   18   19      ar
    20   18   20      ar
    21   18   21      ar
    22    3   22       1
    23    3   23       1
    24    3   24       1
    25    5   25       1
    26    7   26       1
    27    7   27       1
    28    8   28       1
    29   10   29       1
    30   10   30       1
    31   16   33       1
    32   15   31       1
    33   16   32       1
    34    1   34       1
@<TRIPOS>SUBSTRUCTURE
     1 IK21447     1 GROUP             4 B     IK2     0 **** IK2 B1447
