@<TRIPOS>MOLECULE
3p2h_MTA_1_ligand
   35    37     1     0     0
SMALL
NO_CHARGES


@<TRIPOS>ATOM
     1 CS           0.0190    74.2890    57.0890 C.3          1 MTA204   0.0000
     2 S5'          0.0570    75.1620    58.6830 S.3          1 MTA204   0.0000
     3 C5'          1.8370    75.4920    58.8560 C.3          1 MTA204   0.0000
     4 C4'          2.5350    74.4570    59.7410 C.3          1 MTA204   0.0000
     5 O4'          2.3930    73.1590    59.0990 O.3          1 MTA204   0.0000
     6 C2'          4.6940    73.5780    59.1070 C.3          1 MTA204   0.0000
     7 O2'          6.0190    73.2670    59.5490 O.3          1 MTA204   0.0000
     8 C3'          4.0280    74.8030    59.8270 C.3          1 MTA204   0.0000
     9 O3'          4.4270    74.8220    61.2030 O.3          1 MTA204   0.0000
    10 C1'          3.6500    72.4670    59.3220 C.3          1 MTA204   0.0000
    11 N9           3.7690    71.3800    58.3280 N.pl3        1 MTA204   0.0000
    12 C8           3.6560    71.4820    56.9620 C.2          1 MTA204   0.0000
    13 N7           3.8130    70.3270    56.3910 N.2          1 MTA204   0.0000
    14 C5           4.0370    69.3930    57.3520 C.ar         1 MTA204   0.0000
    15 C6           4.2760    67.9780    57.3570 C.ar         1 MTA204   0.0000
    16 N6           4.3130    67.2770    56.1650 N.pl3        1 MTA204   0.0000
    17 N1           4.4650    67.3390    58.5580 N.ar         1 MTA204   0.0000
    18 C2           4.4330    68.0100    59.7470 C.ar         1 MTA204   0.0000
    19 N3           4.2070    69.3570    59.7530 N.ar         1 MTA204   0.0000
    20 C4           4.0100    70.0700    58.6190 C.ar         1 MTA204   0.0000
    21 HS1         -0.9243    74.0427    56.8662 H            1 MTA204   0.0000
    22 HS2          0.3858    74.8843    56.3741 H            1 MTA204   0.0000
    23 HS3          0.5745    73.4597    57.1498 H            1 MTA204   0.0000
    24 H5'1         1.9584    76.3974    59.2628 H            1 MTA204   0.0000
    25 H5'2         2.2571    75.4752    57.9487 H            1 MTA204   0.0000
    26 H4'          2.1256    74.4432    60.6533 H            1 MTA204   0.0000
    27 H2'          4.7340    73.7792    58.1283 H            1 MTA204   0.0000
    28 H8           5.9734    72.6168    60.3074 H            1 MTA204   0.0000
    29 H3'          4.2378    75.6653    59.3662 H            1 MTA204   0.0000
    30 H10          5.3994    75.0470    61.2650 H            1 MTA204   0.0000
    31 H1'          3.6989    72.1063    60.2534 H            1 MTA204   0.0000
    32 H12          3.4762    72.3349    56.4719 H            1 MTA204   0.0000
    33 H13          4.4796    66.2910    56.1698 H            1 MTA204   0.0000
    34 H14          4.1731    67.7563    55.2985 H            1 MTA204   0.0000
    35 H15          4.5739    67.5189    60.6066 H            1 MTA204   0.0000
@<TRIPOS>BOND
     1    1    2       1
     2    2    3       1
     3    3    4       1
     4    4    5       1
     5    4    8       1
     6    5   10       1
     7    6    7       1
     8    6    8       1
     9    6   10       1
    10    8    9       1
    11   10   11       1
    12   11   12       1
    13   11   20       1
    14   12   13       2
    15   13   14       1
    16   14   15      ar
    17   14   20      ar
    18   15   16       1
    19   15   17      ar
    20   17   18      ar
    21   18   19      ar
    22   19   20      ar
    23    1   21       1
    24    1   22       1
    25    1   23       1
    26    3   24       1
    27    3   25       1
    28    4   26       1
    29    6   27       1
    30    7   28       1
    31    8   29       1
    32    9   30       1
    33   10   31       1
    34   12   32       1
    35   16   33       1
    36   16   34       1
    37   18   35       1
@<TRIPOS>SUBSTRUCTURE
     1 MTA204      1 GROUP             4 A     MTA     0 **** MTA A 204
