@<TRIPOS>MOLECULE
1yf3_SAH_1_ligand
   46    48     1     0     0
SMALL
NO_CHARGES


@<TRIPOS>ATOM
     1 N           13.4050    10.5100    38.3930 N.4          1 SAH400   1.0000
     2 CA          12.3050    11.3340    37.7290 C.3          1 SAH400   0.0000
     3 CB          11.0140    10.6690    37.3750 C.3          1 SAH400   0.0000
     4 CG          10.9780     9.4640    36.4640 C.3          1 SAH400   0.0000
     5 SD           9.2800     9.4430    35.7820 S.3          1 SAH400   0.0000
     6 C           12.0220    12.5620    38.6820 C.2          1 SAH400   0.0000
     7 O           12.6700    12.6740    39.7440 O.co2        1 SAH400   0.0000
     8 OXT         11.1080    13.3900    38.2740 O.co2        1 SAH400  -1.0000
     9 C5'          9.3410     8.1790    34.5870 C.3          1 SAH400   0.0000
    10 C4'          9.8730     8.7580    33.2010 C.3          1 SAH400   0.0000
    11 O4'          9.8520     7.6330    32.3450 O.3          1 SAH400   0.0000
    12 C3'          9.0110     9.7720    32.4760 C.3          1 SAH400   0.0000
    13 O3'          9.6240    11.0600    32.5120 O.3          1 SAH400   0.0000
    14 C2'          8.8820     9.1440    31.0180 C.3          1 SAH400   0.0000
    15 O2'          8.9290    10.1280    29.9880 O.3          1 SAH400   0.0000
    16 C1'         10.0400     8.1450    30.9880 C.3          1 SAH400   0.0000
    17 N9           9.9510     7.1160    30.1310 N.pl3        1 SAH400   0.0000
    18 C8           8.9330     6.2660    29.7450 C.2          1 SAH400   0.0000
    19 N7           9.2720     5.3650    28.8740 N.2          1 SAH400   0.0000
    20 C5          10.6520     5.6090    28.6310 C.ar         1 SAH400   0.0000
    21 C6          11.6040     4.9480    27.7730 C.ar         1 SAH400   0.0000
    22 N6          11.3080     3.9000    26.9940 N.pl3        1 SAH400   0.0000
    23 N1          12.8710     5.4750    27.8020 N.ar         1 SAH400   0.0000
    24 C2          13.2230     6.5370    28.5780 C.ar         1 SAH400   0.0000
    25 N3          12.3430     7.1900    29.4120 N.ar         1 SAH400   0.0000
    26 C4          11.0810     6.6710    29.3850 C.ar         1 SAH400   0.0000
    27 H1          13.9918    10.1090    37.6895 H            1 SAH400   0.0000
    28 H2          13.9519    11.1007    38.9863 H            1 SAH400   0.0000
    29 HA          12.6865    11.7029    36.8814 H            1 SAH400   0.0000
    30 HB1         10.4443    11.3681    36.9429 H            1 SAH400   0.0000
    31 HB2         10.5958    10.3846    38.2377 H            1 SAH400   0.0000
    32 HG1         11.1607     8.6270    36.9798 H            1 SAH400   0.0000
    33 HG2         11.6511     9.5570    35.7303 H            1 SAH400   0.0000
    34 H5'1         8.4238     7.8023    34.4574 H            1 SAH400   0.0000
    35 H5'2         9.9568     7.4565    34.9014 H            1 SAH400   0.0000
    36 H4'         10.8064     9.1022    33.3020 H            1 SAH400   0.0000
    37 H3'          8.1089     9.8159    32.9052 H            1 SAH400   0.0000
    38 H12         10.5189    11.0158    32.0680 H            1 SAH400   0.0000
    39 H2'          8.0182     8.6444    30.9530 H            1 SAH400   0.0000
    40 H14          9.7997    10.6176    30.0342 H            1 SAH400   0.0000
    41 H1'         10.9186     8.6141    30.8981 H            1 SAH400   0.0000
    42 H16          8.0045     6.3392    30.1091 H            1 SAH400   0.0000
    43 H17         12.0161     3.4869    26.4213 H            1 SAH400   0.0000
    44 H18         10.3788     3.5304    26.9849 H            1 SAH400   0.0000
    45 H19         14.1689     6.8593    28.5404 H            1 SAH400   0.0000
    46 H20         12.9920     9.7805    38.9382 H            1 SAH400   0.0000
@<TRIPOS>BOND
     1    1    2       1
     2    2    3       1
     3    2    6       1
     4    3    4       1
     5    4    5       1
     6    5    9       1
     7    6    7      ar
     8    6    8      ar
     9    9   10       1
    10   10   11       1
    11   10   12       1
    12   11   16       1
    13   12   13       1
    14   12   14       1
    15   14   15       1
    16   14   16       1
    17   16   17       1
    18   17   18       1
    19   17   26       1
    20   18   19       2
    21   19   20       1
    22   20   21      ar
    23   20   26      ar
    24   21   22       1
    25   21   23      ar
    26   23   24      ar
    27   24   25      ar
    28   25   26      ar
    29    1   27       1
    30    1   28       1
    31    2   29       1
    32    3   30       1
    33    3   31       1
    34    4   32       1
    35    4   33       1
    36    1   46       1
    37    9   34       1
    38    9   35       1
    39   10   36       1
    40   12   37       1
    41   13   38       1
    42   14   39       1
    43   15   40       1
    44   16   41       1
    45   18   42       1
    46   22   43       1
    47   22   44       1
    48   24   45       1
@<TRIPOS>SUBSTRUCTURE
     1 SAH400      1 GROUP             4 A     SAH     0 **** SAH A 400
