@<TRIPOS>MOLECULE
1mc0_PCG_1_ligand
   35    38     1     0     0
SMALL
NO_CHARGES


@<TRIPOS>ATOM
     1 PA         132.5050    56.8360   117.4630 P.3          1 PCG160   0.0000
     2 O1A        132.7330    58.0380   116.5450 O.3          1 PCG160   0.0000
     3 O2A        133.9060    56.3210   117.7960 O.2          1 PCG160   0.0000
     4 O5'        131.7210    55.8380   116.6560 O.3          1 PCG160   0.0000
     5 C5'        130.4050    56.0910   116.0630 C.3          1 PCG160   0.0000
     6 C4'        129.7010    57.1570   116.8630 C.3          1 PCG160   0.0000
     7 O4'        128.2460    57.2890   116.7530 O.3          1 PCG160   0.0000
     8 C3'        130.0290    56.9720   118.3300 C.3          1 PCG160   0.0000
     9 O3'        131.5100    56.8240   118.6000 O.3          1 PCG160   0.0000
    10 C2'        129.1600    58.1810   118.7290 C.3          1 PCG160   0.0000
    11 O2'        129.5960    59.5180   118.4620 O.3          1 PCG160   0.0000
    12 C1'        127.8470    57.9410   117.9680 C.3          1 PCG160   0.0000
    13 N9         126.9600    57.0340   118.7050 N.pl3        1 PCG160   0.0000
    14 C8         127.0560    55.8190   119.3910 C.2          1 PCG160   0.0000
    15 N7         125.8320    55.5710   119.8170 N.2          1 PCG160   0.0000
    16 C5         124.9420    56.4420   119.5120 C.2          1 PCG160   0.0000
    17 C6         123.5170    56.5950   119.7440 C.2          1 PCG160   0.0000
    18 O6         122.7390    55.8080   120.3750 O.2          1 PCG160   0.0000
    19 N1         122.9910    57.7880   119.1690 N.pl3        1 PCG160   0.0000
    20 C2         123.7070    58.7540   118.4450 C.2          1 PCG160   0.0000
    21 N2         123.0060    59.8140   117.9810 N.pl3        1 PCG160   0.0000
    22 N3         125.0460    58.6530   118.1990 N.2          1 PCG160   0.0000
    23 C4         125.6130    57.4710   118.7600 C.2          1 PCG160   0.0000
    24 H1A        131.9909    58.6969   116.6680 H            1 PCG160   0.0000
    25 H5'1       129.8642    55.2500   116.0766 H            1 PCG160   0.0000
    26 H5'2       130.5170    56.4001   115.1186 H            1 PCG160   0.0000
    27 H4'        130.0936    58.0341   116.5863 H            1 PCG160   0.0000
    28 H3'        129.5710    56.1420   118.6482 H            1 PCG160   0.0000
    29 H2'        128.9657    58.1105   119.7074 H            1 PCG160   0.0000
    30 H7         129.2260    60.1343   119.1572 H            1 PCG160   0.0000
    31 H1'        127.3866    58.8068   117.7720 H            1 PCG160   0.0000
    32 H9         127.8738    55.2602   119.5286 H            1 PCG160   0.0000
    33 H10        122.0128    57.9537   119.2940 H            1 PCG160   0.0000
    34 H11        123.4694    60.5302   117.4592 H            1 PCG160   0.0000
    35 H12        122.0244    59.8813   118.1598 H            1 PCG160   0.0000
@<TRIPOS>BOND
     1    1    2       1
     2    1    3       2
     3    1    4       1
     4    1    9       1
     5    4    5       1
     6    5    6       1
     7    6    7       1
     8    6    8       1
     9    7   12       1
    10    8    9       1
    11    8   10       1
    12   10   11       1
    13   10   12       1
    14   12   13       1
    15   13   14       1
    16   13   23       1
    17   14   15       2
    18   15   16       1
    19   16   17       1
    20   16   23       2
    21   17   18       2
    22   17   19       1
    23   19   20       1
    24   20   21       1
    25   20   22       2
    26   22   23       1
    27    2   24       1
    28    5   25       1
    29    5   26       1
    30    6   27       1
    31    8   28       1
    32   10   29       1
    33   11   30       1
    34   12   31       1
    35   14   32       1
    36   19   33       1
    37   21   34       1
    38   21   35       1
@<TRIPOS>SUBSTRUCTURE
     1 PCG160      1 GROUP             4 A     PCG     0 **** PCG A 160
