@<TRIPOS>MOLECULE
4x4j_FAD_1_ligand
   84    89     1     0     0
SMALL
NO_CHARGES


@<TRIPOS>ATOM
     1 PA         135.8490   -16.0440    31.9560 P.3          1 FAD503   0.0000
     2 O1A        135.5500   -16.3090    30.5460 O.co2        1 FAD503   0.0000
     3 O2A        134.5220   -15.6120    32.4910 O.co2        1 FAD503  -1.0000
     4 O5B        136.3350   -17.3590    32.6650 O.3          1 FAD503   0.0000
     5 C5B        136.2290   -17.4510    34.1080 C.3          1 FAD503   0.0000
     6 C4B        135.9940   -18.8930    34.4800 C.3          1 FAD503   0.0000
     7 O4B        136.2670   -19.0880    35.8500 O.3          1 FAD503   0.0000
     8 C3B        134.5510   -19.2610    34.2820 C.3          1 FAD503   0.0000
     9 O3B        134.4820   -20.5190    33.5580 O.3          1 FAD503   0.0000
    10 C2B        134.0210   -19.4430    35.5770 C.3          1 FAD503   0.0000
    11 O2B        133.0540   -20.5510    35.5480 O.3          1 FAD503   0.0000
    12 C1B        135.1780   -19.8000    36.3950 C.3          1 FAD503   0.0000
    13 N9A        134.9860   -19.4030    37.7650 N.pl3        1 FAD503   0.0000
    14 C8A        134.3980   -18.3160    38.2770 C.2          1 FAD503   0.0000
    15 N7A        134.4700   -18.3860    39.6200 N.2          1 FAD503   0.0000
    16 C5A        135.1230   -19.5510    39.9690 C.ar         1 FAD503   0.0000
    17 C6A        135.5130   -20.1990    41.2330 C.ar         1 FAD503   0.0000
    18 N6A        135.2020   -19.5800    42.4890 N.pl3        1 FAD503   0.0000
    19 N1A        136.1670   -21.3800    41.2040 N.ar         1 FAD503   0.0000
    20 C2A        136.4730   -21.9820    40.0170 C.ar         1 FAD503   0.0000
    21 N3A        136.1470   -21.4470    38.8350 N.ar         1 FAD503   0.0000
    22 C4A        135.4650   -20.2190    38.7800 C.ar         1 FAD503   0.0000
    23 N1         135.6970   -10.1520    24.1870 N.2          1 FAD503   0.0000
    24 C2         136.3050   -10.0150    22.9780 C.2          1 FAD503   0.0000
    25 O2         137.7640   -10.0100    22.9180 O.2          1 FAD503   0.0000
    26 N3         135.6190    -9.8930    21.8940 N.pl3        1 FAD503   0.0000
    27 C4         134.2380    -9.8950    21.9340 C.2          1 FAD503   0.0000
    28 O4         133.5140    -9.7630    20.7560 O.2          1 FAD503   0.0000
    29 C4X        133.5500   -10.0350    23.1840 C.2          1 FAD503   0.0000
    30 N5         132.1450   -10.0440    23.2820 N.2          1 FAD503   0.0000
    31 C5X        131.5290   -10.1930    24.5510 C.ar         1 FAD503   0.0000
    32 C6         130.0180   -10.2060    24.6680 C.ar         1 FAD503   0.0000
    33 C7         129.4510   -10.3420    25.8640 C.ar         1 FAD503   0.0000
    34 C7M        127.8560   -10.3580    26.0110 C.3          1 FAD503   0.0000
    35 C8         130.2790   -10.4810    27.0810 C.ar         1 FAD503   0.0000
    36 C8M        129.6450   -10.6270    28.3870 C.3          1 FAD503   0.0000
    37 C9         131.6890   -10.4690    26.9730 C.ar         1 FAD503   0.0000
    38 C9A        132.2990   -10.3230    25.6830 C.ar         1 FAD503   0.0000
    39 N10        133.7240   -10.3110    25.5850 N.pl3        1 FAD503   0.0000
    40 C10        134.3380   -10.1670    24.3250 C.2          1 FAD503   0.0000
    41 C1'        134.5350   -10.4400    26.7730 C.3          1 FAD503   0.0000
    42 C2'        134.9700   -11.8920    26.9970 C.3          1 FAD503   0.0000
    43 O2'        133.8440   -12.7430    26.9210 O.3          1 FAD503   0.0000
    44 C3'        135.5770   -11.9560    28.3940 C.3          1 FAD503   0.0000
    45 O3'        136.3790   -10.8630    28.5560 O.3          1 FAD503   0.0000
    46 C4'        136.3980   -13.2590    28.5350 C.3          1 FAD503   0.0000
    47 O4'        135.5730   -14.2850    28.9000 O.3          1 FAD503   0.0000
    48 C5'        137.4750   -13.0460    29.6030 C.3          1 FAD503   0.0000
    49 O5'        138.1310   -14.3350    29.8210 O.3          1 FAD503   0.0000
    50 P          138.3160   -14.8730    31.3340 P.3          1 FAD503   0.0000
    51 O1P        139.3350   -14.0470    32.0740 O.co2        1 FAD503   0.0000
    52 O2P        138.9380   -16.1770    31.3260 O.co2        1 FAD503  -1.0000
    53 O3P        136.9360   -14.8740    32.0850 O.3          1 FAD503   0.0000
    54 H5B1       135.4636   -16.8916    34.4263 H            1 FAD503   0.0000
    55 H5B2       137.0762   -17.1277    34.5297 H            1 FAD503   0.0000
    56 H4B        136.5774   -19.4880    33.9272 H            1 FAD503   0.0000
    57 H3B        134.0613   -18.5392    33.7930 H            1 FAD503   0.0000
    58 H5         134.9439   -21.2325    34.0848 H            1 FAD503   0.0000
    59 H2B        133.5928   -18.6028    35.9099 H            1 FAD503   0.0000
    60 H7         133.5146   -21.3877    35.2517 H            1 FAD503   0.0000
    61 H1B        135.3478   -20.7840    36.3416 H            1 FAD503   0.0000
    62 H8A        133.9765   -17.5768    37.7517 H            1 FAD503   0.0000
    63 H6A1       135.4687   -20.0235    43.3446 H            1 FAD503   0.0000
    64 H6A2       134.7185   -18.7049    42.5090 H            1 FAD503   0.0000
    65 H2A        136.9591   -22.8558    40.0319 H            1 FAD503   0.0000
    66 H13        136.0898    -9.7961    21.0171 H            1 FAD503   0.0000
    67 H14        129.4499   -10.1128    23.8503 H            1 FAD503   0.0000
    68 H7M1       127.6111   -10.4676    26.9743 H            1 FAD503   0.0000
    69 H7M2       127.4810    -9.4969    25.6676 H            1 FAD503   0.0000
    70 H7M3       127.4802   -11.1194    25.4828 H            1 FAD503   0.0000
    71 H8M1       130.3493   -10.7080    29.0923 H            1 FAD503   0.0000
    72 H8M2       129.0773    -9.8252    28.5734 H            1 FAD503   0.0000
    73 H8M3       129.0739   -11.4479    28.3904 H            1 FAD503   0.0000
    74 H21        132.2571   -10.5617    27.7907 H            1 FAD503   0.0000
    75 H1'1       134.0052   -10.1333    27.5637 H            1 FAD503   0.0000
    76 H1'2       135.3492    -9.8677    26.6750 H            1 FAD503   0.0000
    77 H2'        135.6497   -12.1577    26.3133 H            1 FAD503   0.0000
    78 H25        133.9753   -13.4044    26.1825 H            1 FAD503   0.0000
    79 H3'        134.8479   -11.9424    29.0783 H            1 FAD503   0.0000
    80 H27        136.7896   -10.8830    29.4676 H            1 FAD503   0.0000
    81 H4'        136.8330   -13.4755    27.6610 H            1 FAD503   0.0000
    82 H29        136.0866   -14.9482    29.4444 H            1 FAD503   0.0000
    83 H5'1       137.0559   -12.7271    30.4531 H            1 FAD503   0.0000
    84 H5'2       138.1421   -12.3715    29.2867 H            1 FAD503   0.0000
@<TRIPOS>BOND
     1    1    2      ar
     2    1    3      ar
     3    1    4       1
     4    1   53       1
     5    4    5       1
     6    5    6       1
     7    6    7       1
     8    6    8       1
     9    7   12       1
    10    8    9       1
    11    8   10       1
    12   10   11       1
    13   10   12       1
    14   12   13       1
    15   13   14       1
    16   13   22       1
    17   14   15       2
    18   15   16       1
    19   16   17      ar
    20   16   22      ar
    21   17   18       1
    22   17   19      ar
    23   19   20      ar
    24   20   21      ar
    25   21   22      ar
    26   23   24       1
    27   23   40       2
    28   24   25       2
    29   24   26       1
    30   26   27       1
    31   27   28       2
    32   27   29       1
    33   29   30       2
    34   29   40       1
    35   30   31       1
    36   31   32      ar
    37   31   38      ar
    38   32   33      ar
    39   33   34       1
    40   33   35      ar
    41   35   36       1
    42   35   37      ar
    43   37   38      ar
    44   38   39       1
    45   39   40       1
    46   39   41       1
    47   41   42       1
    48   42   43       1
    49   42   44       1
    50   44   45       1
    51   44   46       1
    52   46   47       1
    53   46   48       1
    54   48   49       1
    55   49   50       1
    56   50   51      ar
    57   50   52      ar
    58   50   53       1
    59   48   84       1
    60    5   54       1
    61    5   55       1
    62    6   56       1
    63    8   57       1
    64    9   58       1
    65   10   59       1
    66   11   60       1
    67   12   61       1
    68   14   62       1
    69   18   63       1
    70   18   64       1
    71   20   65       1
    72   26   66       1
    73   32   67       1
    74   34   68       1
    75   34   69       1
    76   34   70       1
    77   36   71       1
    78   36   72       1
    79   36   73       1
    80   37   74       1
    81   41   75       1
    82   41   76       1
    83   42   77       1
    84   43   78       1
    85   44   79       1
    86   45   80       1
    87   46   81       1
    88   47   82       1
    89   48   83       1
@<TRIPOS>SUBSTRUCTURE
     1 FAD503      1 GROUP             4 A     FAD     0 **** FAD A 503
