@<TRIPOS>MOLECULE
4k6r_ATP_1_ligand
   43    45     1     0     0
SMALL
NO_CHARGES


@<TRIPOS>ATOM
     1 PG          -1.7290    28.4420   -12.0360 P.3          1 ATP501   0.0000
     2 O1G         -1.3250    29.5120   -11.0420 O.co2        1 ATP501   0.0000
     3 O2G         -1.8080    27.0290   -11.4960 O.co2        1 ATP501  -1.0000
     4 O3G         -2.7550    28.7810   -13.0710 O.co2        1 ATP501  -1.0000
     5 PB           1.1010    28.8090   -12.9230 P.3          1 ATP501   0.0000
     6 O1B          1.6900    28.6790   -11.5810 O.co2        1 ATP501   0.0000
     7 O2B          1.8530    28.2080   -14.0830 O.co2        1 ATP501  -1.0000
     8 O3B         -0.4340    28.3120   -13.0300 O.3          1 ATP501   0.0000
     9 PA           0.1500    31.2980   -14.2320 P.3          1 ATP501   0.0000
    10 O1A         -0.3650    30.3520   -15.3230 O.co2        1 ATP501   0.0000
    11 O2A         -0.8230    32.1310   -13.4170 O.co2        1 ATP501  -1.0000
    12 O3A          1.0440    30.4240   -13.1740 O.3          1 ATP501   0.0000
    13 O5'          1.2920    32.2850   -14.7710 O.3          1 ATP501   0.0000
    14 C5'          2.1290    31.9940   -15.8910 C.3          1 ATP501   0.0000
    15 C4'          3.4230    32.7420   -15.6280 C.3          1 ATP501   0.0000
    16 O4'          3.1570    34.1900   -15.5030 O.3          1 ATP501   0.0000
    17 C3'          4.0100    32.2930   -14.2760 C.3          1 ATP501   0.0000
    18 O3'          4.9520    31.2170   -14.4690 O.3          1 ATP501   0.0000
    19 C2'          4.7920    33.5720   -13.8920 C.3          1 ATP501   0.0000
    20 O2'          6.0220    33.6220   -14.6190 O.3          1 ATP501   0.0000
    21 C1'          3.9330    34.7010   -14.4280 C.3          1 ATP501   0.0000
    22 N9           3.0470    35.0570   -13.2980 N.pl3        1 ATP501   0.0000
    23 C8           1.7450    34.7120   -13.2170 C.2          1 ATP501   0.0000
    24 N7           1.2390    35.2790   -12.0790 N.2          1 ATP501   0.0000
    25 C5           2.2070    35.9230   -11.4430 C.ar         1 ATP501   0.0000
    26 C6           2.2660    36.7310   -10.2260 C.ar         1 ATP501   0.0000
    27 N6           1.1870    36.8760    -9.3790 N.pl3        1 ATP501   0.0000
    28 N1           3.4630    37.2510    -9.9790 N.ar         1 ATP501   0.0000
    29 C2           4.5650    37.1190   -10.7510 C.ar         1 ATP501   0.0000
    30 N3           4.5910    36.4200   -11.8810 N.ar         1 ATP501   0.0000
    31 C4           3.4230    35.7860   -12.2450 C.ar         1 ATP501   0.0000
    32 H5'1         1.7049    32.3145   -16.7380 H            1 ATP501   0.0000
    33 H5'2         2.2995    31.0107   -15.9549 H            1 ATP501   0.0000
    34 H4'          4.0779    32.5718   -16.3643 H            1 ATP501   0.0000
    35 H3'          3.3009    32.0645   -13.6090 H            1 ATP501   0.0000
    36 H5           5.3846    31.3096   -15.3658 H            1 ATP501   0.0000
    37 H2'          4.9350    33.6437   -12.9049 H            1 ATP501   0.0000
    38 H7           5.8291    33.6337   -15.6001 H            1 ATP501   0.0000
    39 H1'          4.4900    35.4799   -14.7162 H            1 ATP501   0.0000
    40 H9           1.2417    34.1454   -13.8695 H            1 ATP501   0.0000
    41 H10          1.2693    37.4382    -8.5561 H            1 ATP501   0.0000
    42 H11          0.3224    36.4190    -9.5879 H            1 ATP501   0.0000
    43 H12          5.4062    37.5719   -10.4557 H            1 ATP501   0.0000
@<TRIPOS>BOND
     1    1    2      ar
     2    1    3      ar
     3    1    4      ar
     4    1    8       1
     5    5    6      ar
     6    5    7      ar
     7    5    8       1
     8    5   12       1
     9    9   10      ar
    10    9   11      ar
    11    9   12       1
    12    9   13       1
    13   13   14       1
    14   14   15       1
    15   15   16       1
    16   15   17       1
    17   16   21       1
    18   17   18       1
    19   17   19       1
    20   19   20       1
    21   19   21       1
    22   21   22       1
    23   22   23       1
    24   22   31       1
    25   23   24       2
    26   24   25       1
    27   25   26      ar
    28   25   31      ar
    29   26   27       1
    30   26   28      ar
    31   28   29      ar
    32   29   30      ar
    33   30   31      ar
    34   29   43       1
    35   27   42       1
    36   27   41       1
    37   23   40       1
    38   14   32       1
    39   14   33       1
    40   15   34       1
    41   17   35       1
    42   18   36       1
    43   19   37       1
    44   20   38       1
    45   21   39       1
@<TRIPOS>SUBSTRUCTURE
     1 ATP501      1 GROUP             4 A     ATP     0 **** ATP A 501
