@<TRIPOS>MOLECULE
4uy5_IMD_1_ligand
   10    10     1     0     0
SMALL
NO_CHARGES


@<TRIPOS>ATOM
     1 N1          -9.8860     8.0130     2.6250 N.2          1 IMD1328   1.0000
     2 C2          -8.9600     7.9450     3.6090 C.2          1 IMD1328   0.0000
     3 N3          -9.0420     6.7210     4.1670 N.pl3        1 IMD1328   0.0000
     4 C4         -10.0000     6.0100     3.5390 C.2          1 IMD1328   0.0000
     5 C5         -10.5280     6.8310     2.5580 C.2          1 IMD1328   0.0000
     6 H1         -10.0639     8.8077     2.0447 H            1 IMD1328   0.0000
     7 H2          -8.3278     8.6728     3.8747 H            1 IMD1328   0.0000
     8 H3         -10.2758     5.0706     3.7427 H            1 IMD1328   0.0000
     9 H4         -11.2552     6.5900     1.9152 H            1 IMD1328   0.0000
    10 H5          -8.4810     6.3922     4.9267 H            1 IMD1328   0.0000
@<TRIPOS>BOND
     1    1    2       2
     2    1    5       1
     3    2    3       1
     4    3    4       1
     5    4    5       2
     6    1    6       1
     7    2    7       1
     8    4    8       1
     9    5    9       1
    10    3   10       1
@<TRIPOS>SUBSTRUCTURE
     1 IMD1328     1 GROUP             4 A     IMD     0 **** IMD A1328
