@<TRIPOS>MOLECULE
2qrd_ADP_1_ligand
   39    41     1     0     0
SMALL
NO_CHARGES


@<TRIPOS>ATOM
     1 PB          32.7070    25.5510    32.1050 P.3          1 ADP1004   0.0000
     2 O1B         32.9250    24.6830    33.3280 O.co2        1 ADP1004   0.0000
     3 O2B         31.8150    26.7310    32.3120 O.co2        1 ADP1004  -1.0000
     4 O3B         33.9670    25.8040    31.3070 O.co2        1 ADP1004  -1.0000
     5 PA          30.5410    23.8250    31.1640 P.3          1 ADP1004   0.0000
     6 O1A         29.6660    24.4910    32.1810 O.co2        1 ADP1004   0.0000
     7 O2A         29.9230    23.6740    29.8060 O.co2        1 ADP1004  -1.0000
     8 O3A         31.9590    24.5900    31.0200 O.3          1 ADP1004   0.0000
     9 O5'         31.0430    22.3530    31.5710 O.3          1 ADP1004   0.0000
    10 C5'         31.2860    21.9070    32.8940 C.3          1 ADP1004   0.0000
    11 C4'         32.1230    20.6320    32.8140 C.3          1 ADP1004   0.0000
    12 O4'         31.5890    19.7030    31.8560 O.3          1 ADP1004   0.0000
    13 C3'         33.5500    20.9200    32.4060 C.3          1 ADP1004   0.0000
    14 O3'         34.3530    20.0410    33.1850 O.3          1 ADP1004   0.0000
    15 C2'         33.6080    20.4600    30.9500 C.3          1 ADP1004   0.0000
    16 O2'         34.9020    20.0100    30.5080 O.3          1 ADP1004   0.0000
    17 C1'         32.5450    19.3690    30.8560 C.3          1 ADP1004   0.0000
    18 N9          31.9440    19.3250    29.4950 N.pl3        1 ADP1004   0.0000
    19 C8          31.0910    20.2200    28.9500 C.2          1 ADP1004   0.0000
    20 N7          30.7540    19.8740    27.6990 N.2          1 ADP1004   0.0000
    21 C5          31.4080    18.7240    27.4270 C.ar         1 ADP1004   0.0000
    22 C6          31.4880    17.8190    26.2780 C.ar         1 ADP1004   0.0000
    23 N6          30.7660    18.1080    25.1650 N.pl3        1 ADP1004   0.0000
    24 N1          32.3000    16.7310    26.3750 N.ar         1 ADP1004   0.0000
    25 C2          33.0000    16.4450    27.4930 C.ar         1 ADP1004   0.0000
    26 N3          32.9580    17.2310    28.5810 N.ar         1 ADP1004   0.0000
    27 C4          32.1940    18.3610    28.5920 C.ar         1 ADP1004   0.0000
    28 H5'1        30.4183    21.7154    33.3526 H            1 ADP1004   0.0000
    29 H5'2        31.7842    22.6090    33.4030 H            1 ADP1004   0.0000
    30 H4'         32.1291    20.1959    33.7139 H            1 ADP1004   0.0000
    31 H3'         33.8012    21.8811    32.5208 H            1 ADP1004   0.0000
    32 H5          34.2061    20.2280    34.1563 H            1 ADP1004   0.0000
    33 H2'         33.3261    21.2233    30.3686 H            1 ADP1004   0.0000
    34 H7          35.5634    20.7543    30.6008 H            1 ADP1004   0.0000
    35 H1'         32.9559    18.4825    31.0689 H            1 ADP1004   0.0000
    36 H9          30.7541    21.0361    29.4195 H            1 ADP1004   0.0000
    37 H10         30.8078    17.5020    24.3706 H            1 ADP1004   0.0000
    38 H11         30.1925    18.9268    25.1397 H            1 ADP1004   0.0000
    39 H12         33.5677    15.6220    27.5117 H            1 ADP1004   0.0000
@<TRIPOS>BOND
     1    1    2      ar
     2    1    3      ar
     3    1    4      ar
     4    1    8       1
     5    5    6      ar
     6    5    7      ar
     7    5    8       1
     8    5    9       1
     9    9   10       1
    10   10   11       1
    11   11   12       1
    12   11   13       1
    13   12   17       1
    14   13   14       1
    15   13   15       1
    16   15   16       1
    17   15   17       1
    18   17   18       1
    19   18   19       1
    20   18   27       1
    21   19   20       2
    22   20   21       1
    23   21   22      ar
    24   21   27      ar
    25   22   23       1
    26   22   24      ar
    27   24   25      ar
    28   25   26      ar
    29   26   27      ar
    30   25   39       1
    31   23   38       1
    32   23   37       1
    33   10   28       1
    34   10   29       1
    35   11   30       1
    36   13   31       1
    37   14   32       1
    38   15   33       1
    39   16   34       1
    40   17   35       1
    41   19   36       1
@<TRIPOS>SUBSTRUCTURE
     1 ADP1004     1 GROUP             4 E     ADP     0 **** ADP E1004
