@<TRIPOS>MOLECULE
3dr8_ACO_1_ligand
   85    87     1     0     0
SMALL
NO_CHARGES


@<TRIPOS>ATOM
     1 N1A        -21.1960     7.5350    -2.4600 N.ar         1 ACO1423   0.0000
     2 C2A        -21.2440     8.0030    -1.1970 C.ar         1 ACO1423   0.0000
     3 N3A        -21.8070     7.2640    -0.2150 N.ar         1 ACO1423   0.0000
     4 C4A        -22.3320     6.0410    -0.4820 C.ar         1 ACO1423   0.0000
     5 C5A        -22.2900     5.5420    -1.7620 C.ar         1 ACO1423   0.0000
     6 C6A        -21.7070     6.3030    -2.7560 C.ar         1 ACO1423   0.0000
     7 N6A        -21.6850     5.7820    -4.0090 N.pl3        1 ACO1423   0.0000
     8 N7A        -22.8720     4.3290    -1.7620 N.2          1 ACO1423   0.0000
     9 C8A        -23.2620     4.0630    -0.4940 C.2          1 ACO1423   0.0000
    10 N9A        -22.9460     5.1210     0.2640 N.pl3        1 ACO1423   0.0000
    11 C1B        -23.1500     5.2400     1.7230 C.3          1 ACO1423   0.0000
    12 C2B        -24.5230     4.8830     2.2660 C.3          1 ACO1423   0.0000
    13 O2B        -25.4600     5.9680     2.0830 O.3          1 ACO1423   0.0000
    14 C3B        -24.1400     4.6020     3.7200 C.3          1 ACO1423   0.0000
    15 O3B        -24.0820     5.7980     4.4970 O.3          1 ACO1423   0.0000
    16 P3B        -24.5220     5.7390     6.0540 P.3          1 ACO1423   0.0000
    17 O7A        -23.7620     4.5870     6.7050 O.co2        1 ACO1423   0.0000
    18 O8A        -26.0010     5.4350     5.9400 O.co2        1 ACO1423  -1.0000
    19 O9A        -24.2270     7.1220     6.5650 O.co2        1 ACO1423  -1.0000
    20 C4B        -22.7150     4.0540     3.6620 C.3          1 ACO1423   0.0000
    21 O4B        -22.2590     4.3030     2.3400 O.3          1 ACO1423   0.0000
    22 C5B        -22.5900     2.5630     3.9880 C.3          1 ACO1423   0.0000
    23 O5B        -23.6360     1.8600     3.3330 O.3          1 ACO1423   0.0000
    24 P1A        -23.8250     0.2760     3.4280 P.3          1 ACO1423   0.0000
    25 O1A        -24.9350    -0.0840     2.4620 O.co2        1 ACO1423   0.0000
    26 O2A        -23.8180    -0.2240     4.8550 O.co2        1 ACO1423  -1.0000
    27 O3A        -22.4450    -0.1910     2.7260 O.3          1 ACO1423   0.0000
    28 P2A        -22.1780    -1.5340     1.9110 P.3          1 ACO1423   0.0000
    29 O4A        -22.2590    -1.2340     0.4420 O.co2        1 ACO1423   0.0000
    30 O5A        -22.8580    -2.7650     2.4570 O.co2        1 ACO1423  -1.0000
    31 O6A        -20.6230    -1.7060     2.3350 O.3          1 ACO1423   0.0000
    32 CBP        -18.4290    -1.3050     1.4710 C.3          1 ACO1423   0.0000
    33 CCP        -19.6540    -0.6810     2.1080 C.3          1 ACO1423   0.0000
    34 CDP        -17.4620    -0.1920     1.0940 C.3          1 ACO1423   0.0000
    35 CEP        -17.7770    -2.1950     2.5240 C.3          1 ACO1423   0.0000
    36 CAP        -18.8810    -2.1450     0.2550 C.3          1 ACO1423   0.0000
    37 OAP        -19.5660    -1.3790    -0.7800 O.3          1 ACO1423   0.0000
    38 C9P        -17.8070    -2.9170    -0.4730 C.2          1 ACO1423   0.0000
    39 O9P        -17.6420    -4.1070    -0.2770 O.2          1 ACO1423   0.0000
    40 N8P        -17.0940    -2.2740    -1.4160 N.am         1 ACO1423   0.0000
    41 C7P        -16.0330    -2.8150    -2.2630 C.3          1 ACO1423   0.0000
    42 C6P        -14.8030    -3.2180    -1.4050 C.3          1 ACO1423   0.0000
    43 C5P        -14.3890    -2.0680    -0.4550 C.2          1 ACO1423   0.0000
    44 O5P        -14.1810    -0.9060    -0.8560 O.2          1 ACO1423   0.0000
    45 N4P        -14.2470    -2.3760     0.8400 N.am         1 ACO1423   0.0000
    46 C3P        -13.8720    -1.4180     1.8980 C.3          1 ACO1423   0.0000
    47 C2P        -12.3650    -1.1580     1.8060 C.3          1 ACO1423   0.0000
    48 S1P        -11.7660    -0.0330     3.0430 S.3          1 ACO1423   0.0000
    49 C          -12.1540    -0.7400     4.6270 C.2          1 ACO1423   0.0000
    50 O          -12.1440    -2.1660     4.4710 O.2          1 ACO1423   0.0000
    51 CH3        -11.2320    -0.2590     5.7580 C.3          1 ACO1423   0.0000
    52 H2A        -20.8609     8.9021    -0.9851 H            1 ACO1423   0.0000
    53 H6A1       -22.0708     4.8755    -4.1804 H            1 ACO1423   0.0000
    54 H6A2       -21.2830     6.3046    -4.7608 H            1 ACO1423   0.0000
    55 H8A        -23.7073     3.2250    -0.1787 H            1 ACO1423   0.0000
    56 H1B        -22.9098     6.1656     2.0155 H            1 ACO1423   0.0000
    57 H2B        -24.8645     4.0509     1.8290 H            1 ACO1423   0.0000
    58 H7         -25.0002     6.7331     1.6322 H            1 ACO1423   0.0000
    59 H3B        -24.7628     3.9371     4.1322 H            1 ACO1423   0.0000
    60 H4B        -22.1457     4.5713     4.3009 H            1 ACO1423   0.0000
    61 H5B1       -22.6623     2.4282     4.9762 H            1 ACO1423   0.0000
    62 H5B2       -21.7055     2.2226     3.6690 H            1 ACO1423   0.0000
    63 HCP1       -19.4022    -0.2571     2.9780 H            1 ACO1423   0.0000
    64 HCP2       -20.0348     0.0130     1.4969 H            1 ACO1423   0.0000
    65 HDP1       -16.6466    -0.5878     0.6715 H            1 ACO1423   0.0000
    66 HDP2       -17.9045     0.4291     0.4471 H            1 ACO1423   0.0000
    67 HDP3       -17.1995     0.3140     1.9156 H            1 ACO1423   0.0000
    68 HEP1       -16.9613    -2.6257     2.1377 H            1 ACO1423   0.0000
    69 HEP2       -17.5184    -1.6407     3.3151 H            1 ACO1423   0.0000
    70 HEP3       -18.4238    -2.9022     2.8096 H            1 ACO1423   0.0000
    71 HAP        -19.5371    -2.8175     0.5974 H            1 ACO1423   0.0000
    72 H21        -20.3863    -0.9566    -0.3943 H            1 ACO1423   0.0000
    73 H8P        -17.3172    -1.3090    -1.5539 H            1 ACO1423   0.0000
    74 H7P1       -15.7570    -2.1211    -2.9280 H            1 ACO1423   0.0000
    75 H7P2       -16.3760    -3.6211    -2.7453 H            1 ACO1423   0.0000
    76 H6P1       -14.0375    -3.4329    -2.0114 H            1 ACO1423   0.0000
    77 H6P2       -15.0339    -4.0246    -0.8609 H            1 ACO1423   0.0000
    78 H4P        -14.4068    -3.3254     1.1104 H            1 ACO1423   0.0000
    79 H3P1       -14.0941    -1.8014     2.7945 H            1 ACO1423   0.0000
    80 H3P2       -14.3707    -0.5609     1.7692 H            1 ACO1423   0.0000
    81 H2P1       -12.1641    -0.7743     0.9047 H            1 ACO1423   0.0000
    82 H2P2       -11.8860    -2.0295     1.9116 H            1 ACO1423   0.0000
    83 HH31       -11.5038    -0.6929     6.6170 H            1 ACO1423   0.0000
    84 HH32       -10.2865    -0.5052     5.5448 H            1 ACO1423   0.0000
    85 HH33       -11.3055     0.7342     5.8484 H            1 ACO1423   0.0000
@<TRIPOS>BOND
     1    1    2      ar
     2    1    6      ar
     3    2    3      ar
     4    3    4      ar
     5    4    5      ar
     6    4   10       1
     7    5    6      ar
     8    5    8       1
     9    6    7       1
    10    8    9       2
    11    9   10       1
    12   10   11       1
    13   11   12       1
    14   11   21       1
    15   12   13       1
    16   12   14       1
    17   14   15       1
    18   14   20       1
    19   15   16       1
    20   16   17      ar
    21   16   18      ar
    22   16   19      ar
    23   20   21       1
    24   20   22       1
    25   22   23       1
    26   23   24       1
    27   24   25      ar
    28   24   26      ar
    29   24   27       1
    30   27   28       1
    31   28   29      ar
    32   28   30      ar
    33   28   31       1
    34   31   33       1
    35   32   33       1
    36   32   34       1
    37   32   35       1
    38   32   36       1
    39   36   37       1
    40   36   38       1
    41   38   39       2
    42   38   40      am
    43   40   41       1
    44   41   42       1
    45   42   43       1
    46   43   44       2
    47   43   45      am
    48   45   46       1
    49   46   47       1
    50   47   48       1
    51   48   49       1
    52   49   50       2
    53   49   51       1
    54    2   52       1
    55    7   53       1
    56    7   54       1
    57    9   55       1
    58   11   56       1
    59   12   57       1
    60   13   58       1
    61   14   59       1
    62   51   85       1
    63   51   84       1
    64   20   60       1
    65   22   61       1
    66   22   62       1
    67   51   83       1
    68   47   82       1
    69   33   63       1
    70   33   64       1
    71   34   65       1
    72   34   66       1
    73   34   67       1
    74   35   68       1
    75   35   69       1
    76   35   70       1
    77   36   71       1
    78   37   72       1
    79   40   73       1
    80   41   74       1
    81   41   75       1
    82   42   76       1
    83   42   77       1
    84   45   78       1
    85   46   79       1
    86   46   80       1
    87   47   81       1
@<TRIPOS>SUBSTRUCTURE
     1 ACO1423     1 GROUP             4 A     ACO     0 **** ACO A1423
