@<TRIPOS>MOLECULE
3upt_TPP_1_ligand
   43    44     1     0     0
SMALL
NO_CHARGES


@<TRIPOS>ATOM
     1 N1'         36.7920    33.9460   -44.3960 N.ar         1 TPP692   1.0000
     2 C2'         37.5730    32.9690   -43.8410 C.ar         1 TPP692   0.0000
     3 CM2         37.6040    32.7540   -42.3470 C.3          1 TPP692   0.0000
     4 N3'         38.3240    32.1650   -44.6210 N.ar         1 TPP692   0.0000
     5 C4'         38.3370    32.3050   -45.9650 C.ar         1 TPP692   0.0000
     6 N4'         39.1140    31.4760   -46.6900 N.pl3        1 TPP692   0.0000
     7 C5'         37.4960    33.3540   -46.6160 C.ar         1 TPP692   0.0000
     8 C6'         36.7500    34.1560   -45.7390 C.ar         1 TPP692   0.0000
     9 C7'         37.4510    33.5400   -48.1280 C.3          1 TPP692   0.0000
    10 N3          38.7390    34.1380   -48.5050 N.2          1 TPP692   1.0000
    11 C2          39.7920    33.3830   -48.9320 C.2          1 TPP692   0.0000
    12 S1          41.2800    34.2630   -49.2320 S.3          1 TPP692   0.0000
    13 C5          40.4090    35.7130   -48.7760 C.2          1 TPP692   0.0000
    14 C4          39.0060    35.4640   -48.4010 C.2          1 TPP692   0.0000
    15 CM4         38.0650    36.5660   -47.9820 C.3          1 TPP692   0.0000
    16 C6          41.1160    37.0310   -48.8780 C.3          1 TPP692   0.0000
    17 C7          42.3440    37.0980   -48.0230 C.3          1 TPP692   0.0000
    18 O7          43.3130    37.5510   -48.9540 O.3          1 TPP692   0.0000
    19 PA          44.8190    37.5820   -48.4410 P.3          1 TPP692   0.0000
    20 O1A         44.9690    36.7000   -47.2230 O.co2        1 TPP692   0.0000
    21 O2A         45.2270    39.0390   -48.3820 O.co2        1 TPP692  -1.0000
    22 O3A         45.4560    36.6590   -49.5920 O.3          1 TPP692   0.0000
    23 PB          46.0490    37.0510   -51.0300 P.3          1 TPP692   0.0000
    24 O1B         44.8810    37.1580   -51.9290 O.co2        1 TPP692   0.0000
    25 O2B         46.8390    38.3310   -50.8420 O.co2        1 TPP692  -1.0000
    26 O3B         46.8150    35.7950   -51.2990 O.co2        1 TPP692  -1.0000
    27 HM21        38.2269    32.0020   -42.1313 H            1 TPP692   0.0000
    28 HM22        37.9207    33.5888   -41.8966 H            1 TPP692   0.0000
    29 HM23        36.6850    32.5288   -42.0235 H            1 TPP692   0.0000
    30 H4'1        39.1409    31.5595   -47.6861 H            1 TPP692   0.0000
    31 H4'2        39.6636    30.7774   -46.2318 H            1 TPP692   0.0000
    32 H6'         36.1803    34.8913   -46.1061 H            1 TPP692   0.0000
    33 H7'1        36.6989    34.1488   -48.3803 H            1 TPP692   0.0000
    34 H7'2        37.3322    32.6573   -48.5826 H            1 TPP692   0.0000
    35 H9          39.7206    32.3945   -49.0651 H            1 TPP692   0.0000
    36 HM41        38.5476    37.4416   -48.0009 H            1 TPP692   0.0000
    37 HM42        37.2892    36.5993   -48.6120 H            1 TPP692   0.0000
    38 HM43        37.7344    36.3876   -47.0553 H            1 TPP692   0.0000
    39 H13         40.4873    37.7539   -48.5915 H            1 TPP692   0.0000
    40 H14         41.3815    37.1784   -49.8308 H            1 TPP692   0.0000
    41 H15         42.5827    36.1991   -47.6556 H            1 TPP692   0.0000
    42 H16         42.2299    37.7462   -47.2701 H            1 TPP692   0.0000
    43 H1'         36.2361    34.5222   -43.7968 H            1 TPP692   0.0000
@<TRIPOS>BOND
     1    1    2      ar
     2    1    8      ar
     3    2    3       1
     4    2    4      ar
     5    4    5      ar
     6    5    6       1
     7    5    7      ar
     8    7    8      ar
     9    7    9       1
    10    9   10       1
    11   10   11       2
    12   10   14       1
    13   11   12       1
    14   12   13       1
    15   13   14       2
    16   13   16       1
    17   14   15       1
    18   16   17       1
    19   17   18       1
    20   18   19       1
    21   19   20      ar
    22   19   21      ar
    23   19   22       1
    24   22   23       1
    25   23   24      ar
    26   23   25      ar
    27   23   26      ar
    28    3   27       1
    29    3   28       1
    30    3   29       1
    31    6   30       1
    32    6   31       1
    33    8   32       1
    34    9   33       1
    35    9   34       1
    36   11   35       1
    37   15   36       1
    38   15   37       1
    39   15   38       1
    40   16   39       1
    41   16   40       1
    42   17   41       1
    43   17   42       1
    44    1   43       1
@<TRIPOS>SUBSTRUCTURE
     1 TPP692      1 GROUP             4 A     TPP     0 **** TPP A 692
