@<TRIPOS>MOLECULE
3wy9_GDP_2_ligand
   40    42     1     0     0
SMALL
NO_CHARGES


@<TRIPOS>ATOM
     1 PB          85.2090     3.5770    25.5900 P.3          1 GDP500   0.0000
     2 O1B         86.2090     4.7250    25.7650 O.co2        1 GDP500   0.0000
     3 O2B         84.2900     3.2560    26.7450 O.co2        1 GDP500  -1.0000
     4 O3B         84.4760     3.6170    24.2610 O.co2        1 GDP500  -1.0000
     5 O3A         86.0520     2.2130    25.4220 O.3          1 GDP500   0.0000
     6 PA          87.6140     2.0470    25.7890 P.3          1 GDP500   0.0000
     7 O1A         87.8010     2.3450    27.2310 O.co2        1 GDP500   0.0000
     8 O2A         88.5340     2.7410    24.7860 O.co2        1 GDP500  -1.0000
     9 O5'         87.8230     0.4800    25.5570 O.3          1 GDP500   0.0000
    10 C5'         87.2110    -0.4770    26.4420 C.3          1 GDP500   0.0000
    11 C4'         88.0400    -1.7710    26.4910 C.3          1 GDP500   0.0000
    12 O4'         88.2030    -2.2920    25.1570 O.3          1 GDP500   0.0000
    13 C3'         89.4620    -1.5610    27.0370 C.3          1 GDP500   0.0000
    14 O3'         89.8490    -2.7390    27.7510 O.3          1 GDP500   0.0000
    15 C2'         90.2860    -1.4240    25.7740 C.3          1 GDP500   0.0000
    16 O2'         91.6370    -1.8370    25.8730 O.3          1 GDP500   0.0000
    17 C1'         89.6080    -2.3840    24.8260 C.3          1 GDP500   0.0000
    18 N9          89.7890    -1.9730    23.4030 N.pl3        1 GDP500   0.0000
    19 C8          89.4860    -0.7800    22.8310 C.2          1 GDP500   0.0000
    20 N7          89.7310    -0.7820    21.5070 N.2          1 GDP500   0.0000
    21 C5          90.2050    -2.0040    21.2220 C.2          1 GDP500   0.0000
    22 C6          90.6740    -2.6980    20.0090 C.2          1 GDP500   0.0000
    23 O6          90.6760    -2.0930    18.9260 O.2          1 GDP500   0.0000
    24 N1          91.0640    -3.9820    20.1090 N.pl3        1 GDP500   0.0000
    25 C2          91.0750    -4.6470    21.2950 C.2          1 GDP500   0.0000
    26 N2          91.5260    -5.9230    21.3370 N.pl3        1 GDP500   0.0000
    27 N3          90.6700    -4.0680    22.4580 N.2          1 GDP500   0.0000
    28 C4          90.2360    -2.7850    22.4590 C.2          1 GDP500   0.0000
    29 H5'1        86.2905    -0.6880    26.1130 H            1 GDP500   0.0000
    30 H5'2        87.1552    -0.0868    27.3610 H            1 GDP500   0.0000
    31 H4'         87.5654    -2.4470    27.0547 H            1 GDP500   0.0000
    32 H3'         89.5224    -0.7435    27.6098 H            1 GDP500   0.0000
    33 H5          90.7732    -2.6202    28.1140 H            1 GDP500   0.0000
    34 H2'         90.2319    -0.4896    25.4219 H            1 GDP500   0.0000
    35 H7          92.0908    -1.7069    24.9914 H            1 GDP500   0.0000
    36 H1'         89.9431    -3.3153    24.9688 H            1 GDP500   0.0000
    37 H9          89.1243     0.0059    23.3325 H            1 GDP500   0.0000
    38 H10         91.3558    -4.4637    19.2827 H            1 GDP500   0.0000
    39 H11         91.5382    -6.4207    22.2043 H            1 GDP500   0.0000
    40 H12         91.8469    -6.3677    20.5008 H            1 GDP500   0.0000
@<TRIPOS>BOND
     1    1    2      ar
     2    1    3      ar
     3    1    4      ar
     4    1    5       1
     5    5    6       1
     6    6    7      ar
     7    6    8      ar
     8    6    9       1
     9    9   10       1
    10   10   11       1
    11   11   12       1
    12   11   13       1
    13   12   17       1
    14   13   14       1
    15   13   15       1
    16   15   16       1
    17   15   17       1
    18   17   18       1
    19   18   19       1
    20   18   28       1
    21   19   20       2
    22   20   21       1
    23   21   22       1
    24   21   28       2
    25   22   23       2
    26   22   24       1
    27   24   25       1
    28   25   26       1
    29   25   27       2
    30   27   28       1
    31   26   40       1
    32   26   39       1
    33   24   38       1
    34   10   29       1
    35   10   30       1
    36   11   31       1
    37   13   32       1
    38   14   33       1
    39   15   34       1
    40   16   35       1
    41   17   36       1
    42   19   37       1
@<TRIPOS>SUBSTRUCTURE
     1 GDP500      1 GROUP             4 B     GDP     0 **** GDP B 500
