@<TRIPOS>MOLECULE
4dao_ADE_2_ligand
   15    16     1     0     0
SMALL
NO_CHARGES


@<TRIPOS>ATOM
     1 N9         -43.3900   -33.5860    -4.1010 N.2          1 ADE301   0.0000
     2 C8         -42.4620   -33.5860    -3.0830 C.2          1 ADE301   0.0000
     3 N7         -43.0140   -33.5490    -1.8880 N.pl3        1 ADE301   0.0000
     4 C5         -44.3800   -33.5260    -2.1410 C.ar         1 ADE301   0.0000
     5 C6         -45.5120   -33.4800    -1.3010 C.ar         1 ADE301   0.0000
     6 N6         -45.4260   -33.4370     0.0260 N.pl3        1 ADE301   0.0000
     7 N1         -46.7430   -33.4750    -1.8660 N.ar         1 ADE301   0.0000
     8 C2         -46.8480   -33.5080    -3.2070 C.ar         1 ADE301   0.0000
     9 N3         -45.8450   -33.5520    -4.0940 N.ar         1 ADE301   0.0000
    10 C4         -44.6320   -33.5530    -3.4980 C.ar         1 ADE301   0.0000
    11 H1         -41.4740   -33.6114    -3.2353 H            1 ADE301   0.0000
    12 H2         -46.2578   -33.4053     0.5802 H            1 ADE301   0.0000
    13 H3         -44.5296   -33.4364     0.4692 H            1 ADE301   0.0000
    14 H4         -47.7749   -33.4987    -3.5821 H            1 ADE301   0.0000
    15 H5         -42.5543   -33.5396    -1.0000 H            1 ADE301   0.0000
@<TRIPOS>BOND
     1    1    2       2
     2    1   10       1
     3    2    3       1
     4    3    4       1
     5    4    5      ar
     6    4   10      ar
     7    5    6       1
     8    5    7      ar
     9    7    8      ar
    10    8    9      ar
    11    9   10      ar
    12    8   14       1
    13    2   11       1
    14    6   12       1
    15    6   13       1
    16    3   15       1
@<TRIPOS>SUBSTRUCTURE
     1 ADE301      1 GROUP             4 B     ADE     0 **** ADE B 301
