@<TRIPOS>MOLECULE
4i4b_1CV_1_ligand
   97    99     1     0     0
SMALL
NO_CHARGES


@<TRIPOS>ATOM
     1 C1          82.7520   126.7280   107.4450 C.2          1 1CV501   0.0000
     2 C2          83.1730   125.3700   108.0360 C.3          1 1CV501   0.0000
     3 S2          83.2700   128.0210   108.5730 S.2          1 1CV501   0.0000
     4 C3          84.2140   124.6210   107.1880 C.3          1 1CV501   0.0000
     5 O3          86.5050   123.1570   106.3260 O.co2        1 1CV501   0.0000
     6 C4          84.8380   123.4990   108.0240 C.3          1 1CV501   0.0000
     7 O4          85.8260   121.4120   107.4480 O.co2        1 1CV501  -1.0000
     8 C5          85.7950   122.6350   107.2180 C.2          1 1CV501   0.0000
     9 C6          83.5490   124.0940   105.9180 C.3          1 1CV501   0.0000
    10 O7          85.2590   125.5360   106.8160 O.3          1 1CV501   0.0000
    11 C1'         68.4580   121.4540   109.1690 C.3          1 1CV501   0.0000
    12 C10         73.3620   122.1100   104.6480 C.3          1 1CV501   0.0000
    13 O10         73.7460   122.6620   103.3860 O.3          1 1CV501   0.0000
    14 C11         72.3470   123.0570   105.3090 C.3          1 1CV501   0.0000
    15 C12         71.1350   123.2270   104.3980 C.3          1 1CV501   0.0000
    16 C13         72.9420   124.4400   105.5800 C.3          1 1CV501   0.0000
    17 C14         71.8530   122.4450   106.6190 C.3          1 1CV501   0.0000
    18 N1A         67.5120   126.3680   110.2550 N.ar         1 1CV501   0.0000
    19 O1A         66.6300   119.2040   103.7300 O.co2        1 1CV501   0.0000
    20 P1A         67.2720   120.5100   104.1250 P.3          1 1CV501   0.0000
    21 S1P         80.9980   126.8220   107.1450 S.3          1 1CV501   0.0000
    22 C2'         67.1350   120.8800   109.6230 C.3          1 1CV501   0.0000
    23 O2'         67.3290   120.0130   110.7400 O.3          1 1CV501   0.0000
    24 C2A         67.5780   125.3110   111.0780 C.ar         1 1CV501   0.0000
    25 O2A         66.6610   121.8350   103.7630 O.co2        1 1CV501  -1.0000
    26 P2A         69.7720   121.4860   102.9300 P.3          1 1CV501   0.0000
    27 C2P         80.1510   126.7120   108.6960 C.3          1 1CV501   0.0000
    28 C3'         66.6880   120.1170   108.4010 C.3          1 1CV501   0.0000
    29 O3'         65.7610   119.0960   108.7180 O.3          1 1CV501   0.0000
    30 P3'         64.1940   119.2150   108.3350 P.3          1 1CV501   0.0000
    31 N3A         67.8270   124.0790   110.6100 N.ar         1 1CV501   0.0000
    32 O3A         68.7740   120.3770   103.5280 O.3          1 1CV501   0.0000
    33 C3P         79.6090   125.3200   109.0150 C.3          1 1CV501   0.0000
    34 C4'         68.0030   119.5610   107.8630 C.3          1 1CV501   0.0000
    35 O4'         68.9760   120.5570   108.1750 O.3          1 1CV501   0.0000
    36 C4A         68.0350   123.8970   109.2890 C.ar         1 1CV501   0.0000
    37 O4A         70.8200   120.7390   102.1330 O.co2        1 1CV501   0.0000
    38 N4P         78.5300   125.0490   108.0660 N.am         1 1CV501   0.0000
    39 C5'         67.9800   119.2960   106.3700 C.3          1 1CV501   0.0000
    40 O5'         67.4670   120.4420   105.7060 O.3          1 1CV501   0.0000
    41 C5A         67.9700   124.9630   108.4160 C.ar         1 1CV501   0.0000
    42 O5A         69.0630   122.6580   102.2960 O.co2        1 1CV501  -1.0000
    43 C5P         78.3240   123.9170   107.4070 C.2          1 1CV501   0.0000
    44 O5P         79.0480   122.9330   107.5370 O.2          1 1CV501   0.0000
    45 C6A         67.7050   126.2290   108.9250 C.ar         1 1CV501   0.0000
    46 N6A         67.6350   127.3060   108.1110 N.pl3        1 1CV501   0.0000
    47 O6A         70.5050   121.9620   104.2730 O.3          1 1CV501   0.0000
    48 C6P         77.1360   123.9000   106.4710 C.3          1 1CV501   0.0000
    49 N7A         68.2120   124.4840   107.1770 N.2          1 1CV501   0.0000
    50 O7A         64.0830   118.4550   107.0320 O.co2        1 1CV501   0.0000
    51 C7P         76.9720   122.5190   105.8410 C.3          1 1CV501   0.0000
    52 C8A         68.4070   123.1520   107.2940 C.2          1 1CV501   0.0000
    53 O8A         63.5610   118.5400   109.5300 O.co2        1 1CV501  -1.0000
    54 N8P         75.6850   122.5560   105.1640 N.am         1 1CV501   0.0000
    55 N9A         68.2950   122.8010   108.5810 N.pl3        1 1CV501   0.0000
    56 O9A         63.8460   120.6720   108.1820 O.co2        1 1CV501  -1.0000
    57 C9P         74.5830   121.8940   105.5040 C.2          1 1CV501   0.0000
    58 O9P         74.5430   121.1510   106.4690 O.2          1 1CV501   0.0000
    59 H1          82.3588   124.7949   108.1163 H            1 1CV501   0.0000
    60 H2          83.5606   125.5278   108.9442 H            1 1CV501   0.0000
    61 H3          84.1053   122.9192   108.3803 H            1 1CV501   0.0000
    62 H4          85.3398   123.9081   108.7861 H            1 1CV501   0.0000
    63 H5          84.2250   123.6065   105.3654 H            1 1CV501   0.0000
    64 H6          82.8074   123.4700   106.1644 H            1 1CV501   0.0000
    65 H7          83.1792   124.8604   105.3927 H            1 1CV501   0.0000
    66 H8          86.1198   125.0367   106.7174 H            1 1CV501   0.0000
    67 H1'         69.0890   121.4989   109.9435 H            1 1CV501   0.0000
    68 H10         72.9207   121.2266   104.4905 H            1 1CV501   0.0000
    69 H11         73.5100   122.0206   102.6560 H            1 1CV501   0.0000
    70 H12         71.4284   123.5512   103.4986 H            1 1CV501   0.0000
    71 H13         70.4983   123.8859   104.7985 H            1 1CV501   0.0000
    72 H14         72.2510   125.0220   106.0087 H            1 1CV501   0.0000
    73 H15         73.7283   124.3506   106.1913 H            1 1CV501   0.0000
    74 H16         73.2356   124.8515   104.7172 H            1 1CV501   0.0000
    75 H17         71.1931   123.0623   107.0473 H            1 1CV501   0.0000
    76 H18         71.4144   121.5660   106.4318 H            1 1CV501   0.0000
    77 H19         72.6282   122.3062   107.2353 H            1 1CV501   0.0000
    78 H2'         66.4873   121.6088   109.8453 H            1 1CV501   0.0000
    79 H21         68.2347   119.5930   110.6826 H            1 1CV501   0.0000
    80 H2A         67.4389   125.4440   112.0593 H            1 1CV501   0.0000
    81 H2P1        79.3826   127.3518   108.6800 H            1 1CV501   0.0000
    82 H2P2        80.7881   126.9743   109.4207 H            1 1CV501   0.0000
    83 H3'         66.2868   120.7460   107.7351 H            1 1CV501   0.0000
    84 H3P1        79.2568   125.2955   109.9506 H            1 1CV501   0.0000
    85 H3P2        80.3338   124.6385   108.9137 H            1 1CV501   0.0000
    86 H4'         68.2278   118.7150   108.3465 H            1 1CV501   0.0000
    87 H4P         77.8824   125.7920   107.8970 H            1 1CV501   0.0000
    88 H5'1        67.3956   118.5075   106.1782 H            1 1CV501   0.0000
    89 H5'2        68.9082   119.1092   106.0481 H            1 1CV501   0.0000
    90 H6A1        67.7784   127.1993   107.1271 H            1 1CV501   0.0000
    91 H6A2        67.4398   128.2094   108.4927 H            1 1CV501   0.0000
    92 H6P1        77.2765   124.5769   105.7484 H            1 1CV501   0.0000
    93 H6P2        76.3089   124.1278   106.9848 H            1 1CV501   0.0000
    94 H7P1        76.9767   121.8097   106.5459 H            1 1CV501   0.0000
    95 H7P2        77.7072   122.3432   105.1863 H            1 1CV501   0.0000
    96 H8A         68.6039   122.5271   106.5385 H            1 1CV501   0.0000
    97 H8P         75.6223   123.1422   104.3562 H            1 1CV501   0.0000
@<TRIPOS>BOND
     1    1    2       1
     2    1    3       2
     3    1   21       1
     4    2    4       1
     5    4    6       1
     6    4    9       1
     7    4   10       1
     8    5    8      ar
     9    6    8       1
    10    7    8      ar
    11   11   22       1
    12   11   35       1
    13   11   55       1
    14   12   13       1
    15   12   14       1
    16   12   57       1
    17   14   15       1
    18   14   16       1
    19   14   17       1
    20   15   47       1
    21   18   24      ar
    22   18   45      ar
    23   19   20      ar
    24   20   25      ar
    25   20   32       1
    26   20   40       1
    27   21   27       1
    28   22   23       1
    29   22   28       1
    30   24   31      ar
    31   26   32       1
    32   26   37      ar
    33   26   42      ar
    34   26   47       1
    35   27   33       1
    36   28   29       1
    37   28   34       1
    38   29   30       1
    39   30   50      ar
    40   30   53      ar
    41   30   56      ar
    42   31   36      ar
    43   33   38       1
    44   34   35       1
    45   34   39       1
    46   36   41      ar
    47   36   55       1
    48   38   43      am
    49   39   40       1
    50   41   45      ar
    51   41   49       1
    52   43   44       2
    53   43   48       1
    54   45   46       1
    55   48   51       1
    56   49   52       2
    57   51   54       1
    58   52   55       1
    59   54   57      am
    60   57   58       2
    61    2   59       1
    62    2   60       1
    63   54   97       1
    64    6   61       1
    65    6   62       1
    66    9   63       1
    67    9   64       1
    68    9   65       1
    69   10   66       1
    70   11   67       1
    71   12   68       1
    72   13   69       1
    73   15   70       1
    74   15   71       1
    75   16   72       1
    76   16   73       1
    77   16   74       1
    78   17   75       1
    79   17   76       1
    80   17   77       1
    81   51   94       1
    82   22   78       1
    83   23   79       1
    84   24   80       1
    85   27   81       1
    86   27   82       1
    87   28   83       1
    88   33   84       1
    89   33   85       1
    90   34   86       1
    91   52   96       1
    92   38   87       1
    93   39   88       1
    94   39   89       1
    95   46   90       1
    96   46   91       1
    97   48   92       1
    98   48   93       1
    99   51   95       1
@<TRIPOS>SUBSTRUCTURE
     1 1CV501      1 GROUP             4 A     1CV     0 **** 1CV A 501
