@<TRIPOS>MOLECULE
3dh8_B4N_1_ligand
   31    32     1     0     0
SMALL
NO_CHARGES


@<TRIPOS>ATOM
     1 CAG        -17.5180     1.5070   -14.4010 C.ar         1 B4N1000   0.0000
     2 CAK        -17.4470     2.0810   -15.7100 C.ar         1 B4N1000   0.0000
     3 CAS        -16.6870     3.2360   -15.8860 C.ar         1 B4N1000   0.0000
     4 NAU        -16.4690     3.7850   -17.1270 N.2          1 B4N1000   1.0000
     5 OAD        -17.3310     3.6360   -18.1910 O.co2        1 B4N1000   0.0000
     6 OAA        -15.2180     4.4010   -17.4310 O.co2        1 B4N1000  -1.0000
     7 CAL        -16.0160     3.8310   -14.8200 C.ar         1 B4N1000   0.0000
     8 CAH        -16.1020     3.3160   -13.5260 C.ar         1 B4N1000   0.0000
     9 CAQ        -16.8640     2.1410   -13.3450 C.ar         1 B4N1000   0.0000
    10 OAO        -16.7690     1.7050   -12.0510 O.3          1 B4N1000   0.0000
    11 PAW        -17.7280     0.6880   -11.3170 P.3          1 B4N1000   0.0000
    12 OAF        -18.7650     0.1390   -12.2440 O.co2        1 B4N1000   0.0000
    13 OAC        -16.9720    -0.1720   -10.3730 O.co2        1 B4N1000  -1.0000
    14 OAP        -18.5620     1.7460   -10.4810 O.3          1 B4N1000   0.0000
    15 CAR        -18.3630     1.9810    -9.1520 C.ar         1 B4N1000   0.0000
    16 CAI        -19.2760     1.4350    -8.2960 C.ar         1 B4N1000   0.0000
    17 CAM        -19.2340     1.5930    -6.9370 C.ar         1 B4N1000   0.0000
    18 CAT        -18.2300     2.4040    -6.4350 C.ar         1 B4N1000   0.0000
    19 NAV        -18.1920     2.6560    -5.1040 N.2          1 B4N1000   1.0000
    20 OAE        -17.7590     1.6890    -4.1690 O.co2        1 B4N1000   0.0000
    21 OAB        -18.5940     3.9980    -4.8140 O.co2        1 B4N1000  -1.0000
    22 CAN        -17.3090     3.0450    -7.3030 C.ar         1 B4N1000   0.0000
    23 CAJ        -17.3600     2.8270    -8.7040 C.ar         1 B4N1000   0.0000
    24 HAG        -18.0300     0.6622   -14.2455 H            1 B4N1000   0.0000
    25 HAK        -17.9307     1.6637   -16.4794 H            1 B4N1000   0.0000
    26 HAL        -15.4602     4.6456   -14.9859 H            1 B4N1000   0.0000
    27 HAH        -15.6424     3.7612   -12.7575 H            1 B4N1000   0.0000
    28 HAI        -20.0179     0.8883    -8.6842 H            1 B4N1000   0.0000
    29 HAM        -19.8959     1.1448    -6.3361 H            1 B4N1000   0.0000
    30 HAN        -16.6159     3.6575    -6.9230 H            1 B4N1000   0.0000
    31 HAJ        -16.7111     3.2579    -9.3311 H            1 B4N1000   0.0000
@<TRIPOS>BOND
     1    1    2      ar
     2    1    9      ar
     3    2    3      ar
     4    3    4       1
     5    3    7      ar
     6    4    5      ar
     7    4    6      ar
     8    7    8      ar
     9    8    9      ar
    10    9   10       1
    11   10   11       1
    12   11   12      ar
    13   11   13      ar
    14   11   14       1
    15   14   15       1
    16   15   16      ar
    17   15   23      ar
    18   16   17      ar
    19   17   18      ar
    20   18   19       1
    21   18   22      ar
    22   19   20      ar
    23   19   21      ar
    24   22   23      ar
    25    1   24       1
    26    2   25       1
    27    7   26       1
    28    8   27       1
    29   23   31       1
    30   16   28       1
    31   17   29       1
    32   22   30       1
@<TRIPOS>SUBSTRUCTURE
     1 B4N1000     1 GROUP             4 A     B4N     0 **** B4N A1000
