@<TRIPOS>MOLECULE
4ql3_GDP_1_ligand
   40    42     1     0     0
SMALL
NO_CHARGES


@<TRIPOS>ATOM
     1 PB          88.2550    33.3860    16.2850 P.3          1 GDP201   0.0000
     2 O1B         87.8740    34.8310    16.2670 O.co2        1 GDP201   0.0000
     3 O2B         89.2850    33.0240    15.2600 O.co2        1 GDP201  -1.0000
     4 O3B         88.5830    32.9140    17.6790 O.co2        1 GDP201  -1.0000
     5 O3A         86.8630    32.6440    15.8560 O.3          1 GDP201   0.0000
     6 PA          86.6590    31.3610    14.9060 P.3          1 GDP201   0.0000
     7 O1A         86.8210    31.7100    13.4660 O.co2        1 GDP201   0.0000
     8 O2A         87.4700    30.2290    15.4790 O.co2        1 GDP201  -1.0000
     9 O5'         85.0920    31.0870    15.1330 O.3          1 GDP201   0.0000
    10 C5'         84.5970    30.7540    16.4330 C.3          1 GDP201   0.0000
    11 C4'         83.3210    29.9510    16.2910 C.3          1 GDP201   0.0000
    12 O4'         82.3150    30.7290    15.6380 O.3          1 GDP201   0.0000
    13 C3'         83.5050    28.7270    15.4170 C.3          1 GDP201   0.0000
    14 O3'         82.7080    27.6300    15.8760 O.3          1 GDP201   0.0000
    15 C2'         83.0110    29.1720    14.0550 C.3          1 GDP201   0.0000
    16 O2'         82.4770    28.1130    13.2540 O.3          1 GDP201   0.0000
    17 C1'         81.8840    30.1060    14.4320 C.3          1 GDP201   0.0000
    18 N9          81.6460    31.1730    13.4450 N.pl3        1 GDP201   0.0000
    19 C8          82.5900    32.0490    12.9740 C.2          1 GDP201   0.0000
    20 N7          82.0210    32.9310    12.1080 N.2          1 GDP201   0.0000
    21 C5          80.7290    32.5880    12.0520 C.2          1 GDP201   0.0000
    22 C6          79.6020    33.1230    11.3540 C.2          1 GDP201   0.0000
    23 O6          79.6410    34.1180    10.5920 O.2          1 GDP201   0.0000
    24 N1          78.4590    32.4870    11.5960 N.pl3        1 GDP201   0.0000
    25 C2          78.2860    31.4240    12.4160 C.2          1 GDP201   0.0000
    26 N2          77.0730    30.8900    12.5670 N.pl3        1 GDP201   0.0000
    27 N3          79.2770    30.8950    13.1230 N.2          1 GDP201   0.0000
    28 C4          80.4780    31.4640    12.9310 C.2          1 GDP201   0.0000
    29 H5'1        84.4089    31.5928    16.9440 H            1 GDP201   0.0000
    30 H5'2        85.2803    30.2119    16.9221 H            1 GDP201   0.0000
    31 H4'         82.9966    29.6728    17.1951 H            1 GDP201   0.0000
    32 H3'         84.4697    28.4672    15.3738 H            1 GDP201   0.0000
    33 H5          82.8522    26.8406    15.2793 H            1 GDP201   0.0000
    34 H2'         83.7283    29.6632    13.5608 H            1 GDP201   0.0000
    35 H7          83.0042    28.0368    12.4077 H            1 GDP201   0.0000
    36 H1'         81.0436    29.5879    14.5912 H            1 GDP201   0.0000
    37 H9          83.5567    32.0408    13.2299 H            1 GDP201   0.0000
    38 H10         77.6458    32.8285    11.1248 H            1 GDP201   0.0000
    39 H11         76.9443    30.1047    13.1726 H            1 GDP201   0.0000
    40 H12         76.2924    31.2750    12.0746 H            1 GDP201   0.0000
@<TRIPOS>BOND
     1    1    2      ar
     2    1    3      ar
     3    1    4      ar
     4    1    5       1
     5    5    6       1
     6    6    7      ar
     7    6    8      ar
     8    6    9       1
     9    9   10       1
    10   10   11       1
    11   11   12       1
    12   11   13       1
    13   12   17       1
    14   13   14       1
    15   13   15       1
    16   15   16       1
    17   15   17       1
    18   17   18       1
    19   18   19       1
    20   18   28       1
    21   19   20       2
    22   20   21       1
    23   21   22       1
    24   21   28       2
    25   22   23       2
    26   22   24       1
    27   24   25       1
    28   25   26       1
    29   25   27       2
    30   27   28       1
    31   26   40       1
    32   26   39       1
    33   24   38       1
    34   10   29       1
    35   10   30       1
    36   11   31       1
    37   13   32       1
    38   14   33       1
    39   15   34       1
    40   16   35       1
    41   17   36       1
    42   19   37       1
@<TRIPOS>SUBSTRUCTURE
     1 GDP201      1 GROUP             4 A     GDP     0 **** GDP A 201
