@<TRIPOS>MOLECULE
./coach420/2zgm/ligand.pdb
 23 24 0 0 0
SMALL
GASTEIGER

@<TRIPOS>ATOM
      1  C1        -1.3190  -22.7440  -14.3260 C.3   167  LAT167      0.2695
      2  C2        -0.3120  -23.6490  -13.5850 C.3   167  LAT167      0.2406
      3  C3        -0.9950  -24.2000  -12.3270 C.3   167  LAT167      0.2198
      4  C4        -1.4290  -23.0170  -11.4380 C.3   167  LAT167      0.2144
      5  C5        -2.3960  -22.1230  -12.2780 C.3   167  LAT167      0.1835
      6  C6        -2.8360  -20.9240  -11.4310 C.3   167  LAT167      0.2142
      7  O1        -0.6610  -22.2560  -15.4960 O.3   167  LAT167     -0.3257
      8  O2         0.0830  -24.7350  -14.4370 O.3   167  LAT167     -0.2149
      9  O3        -0.0840  -25.0420  -11.6120 O.3   167  LAT167     -0.2174
     10  O4        -0.2780  -22.2620  -11.0390 O.3   167  LAT167     -0.2176
     11  O5        -1.7220  -21.6330  -13.4720 O.3   167  LAT167     -0.3256
     12  O6        -3.7210  -20.1070  -12.2060 O.3   167  LAT167     -0.2176
     13  C1'       -2.0490  -20.2080  -18.8890 C.3   167  LAT167      0.3023
     14  C2'       -1.7350  -19.3640  -17.6310 C.3   167  LAT167      0.2433
     15  C3'       -0.8130  -20.1870  -16.7240 C.3   167  LAT167      0.2168
     16  C4'       -1.5450  -21.4820  -16.3430 C.3   167  LAT167      0.1804
     17  C5'       -1.8760  -22.2500  -17.6600 C.3   167  LAT167      0.1804
     18  C6'       -2.6350  -23.5410  -17.3220 C.3   167  LAT167      0.2141
     19  O1'       -2.9110  -19.4520  -19.7400 O.3   167  LAT167     -0.1869
     20  O2'       -1.0640  -18.1560  -18.0110 O.3   167  LAT167     -0.2148
     21  O3'       -0.5070  -19.4440  -15.5350 O.3   167  LAT167     -0.2175
     22  O5'       -2.7250  -21.4440  -18.5150 O.3   167  LAT167     -0.3237
     23  O6'       -2.9410  -24.2420  -18.5190 O.3   167  LAT167     -0.2176
@<TRIPOS>BOND
     1     1     7    1
     2     1     2    1
     3     1    11    1
     4     2     8    1
     5     2     3    1
     6     3     9    1
     7     3     4    1
     8     4     5    1
     9     4    10    1
    10     5    11    1
    11     5     6    1
    12     6    12    1
    13     7    16    1
    14    13    19    1
    15    13    22    1
    16    13    14    1
    17    14    20    1
    18    14    15    1
    19    15    16    1
    20    15    21    1
    21    16    17    1
    22    17    22    1
    23    17    18    1
    24    18    23    1
