@<TRIPOS>MOLECULE
4de1_0J6_1_ligand
   33    36     1     0     0
SMALL
NO_CHARGES


@<TRIPOS>ATOM
     1 O14         -9.2120    55.4320    13.8030 O.2          1 0J6301   0.0000
     2 C13         -8.8880    55.5960    12.6160 C.2          1 0J6301   0.0000
     3 C15         -9.6930    56.5100    11.7420 C.2          1 0J6301   0.0000
     4 C20        -10.7160    57.2500    12.3480 C.2          1 0J6301   0.0000
     5 C19        -11.4270    58.1590    11.5830 C.2          1 0J6301   0.0000
     6 C23        -12.5210    59.0220    11.9410 C.2          1 0J6301   0.0000
     7 N22        -12.8350    59.6840    10.8070 N.pl3        1 0J6301   0.0000
     8 N21        -11.9970    59.2600     9.7730 N.2          1 0J6301   0.0000
     9 C18        -11.1310    58.3200    10.2380 C.2          1 0J6301   0.0000
    10 C17        -10.1190    57.5960     9.6180 C.2          1 0J6301   0.0000
    11 C16         -9.3780    56.7000    10.3770 C.2          1 0J6301   0.0000
    12 N12         -7.8040    54.9990    12.1030 N.am         1 0J6301   0.0000
    13 C8          -6.9440    54.1610    12.8240 C.ar         1 0J6301   0.0000
    14 C7          -5.6020    54.1490    12.4580 C.ar         1 0J6301   0.0000
    15 C9          -7.4000    53.3290    13.8610 C.ar         1 0J6301   0.0000
    16 C10         -6.4710    52.5690    14.5680 C.ar         1 0J6301   0.0000
    17 C11         -5.1160    52.5580    14.2430 C.ar         1 0J6301   0.0000
    18 C6          -4.7140    53.3440    13.1770 C.ar         1 0J6301   0.0000
    19 C2          -3.2930    53.3440    12.8090 C.2          1 0J6301   0.0000
    20 N3          -2.8080    53.6280    11.5880 N.2          1 0J6301   0.0000
    21 N4          -1.4420    53.4520    11.6620 N.2          1 0J6301   0.0000
    22 N5          -1.1290    53.0620    12.9220 N.2          1 0J6301   0.0000
    23 N1          -2.2780    53.0180    13.6300 N.pl3        1 0J6301  -1.0000
    24 H1         -10.9293    57.1240    13.3168 H            1 0J6301   0.0000
    25 H2         -12.9555    59.1122    12.8372 H            1 0J6301   0.0000
    26 H3          -9.9284    57.7182     8.6440 H            1 0J6301   0.0000
    27 H4          -8.6248    56.1913     9.9599 H            1 0J6301   0.0000
    28 H5          -7.5944    55.1629    11.1390 H            1 0J6301   0.0000
    29 H6          -5.2782    54.7067    11.6937 H            1 0J6301   0.0000
    30 H7          -8.3731    53.2835    14.0870 H            1 0J6301   0.0000
    31 H8          -6.7876    52.0118    15.3357 H            1 0J6301   0.0000
    32 H9          -4.4613    52.0052    14.7585 H            1 0J6301   0.0000
    33 H10        -13.5560    60.3715    10.7207 H            1 0J6301   0.0000
@<TRIPOS>BOND
     1    1    2       2
     2    2    3       1
     3    2   12      am
     4    3    4       2
     5    3   11       1
     6    4    5       1
     7    5    6       2
     8    5    9       1
     9    6    7       1
    10    7    8       1
    11    8    9       2
    12    9   10       1
    13   10   11       2
    14   12   13       1
    15   13   14      ar
    16   13   15      ar
    17   14   18      ar
    18   15   16      ar
    19   16   17      ar
    20   17   18      ar
    21   18   19       1
    22   19   20       2
    23   19   23       1
    24   20   21       1
    25   21   22       2
    26   22   23       1
    27    4   24       1
    28    6   25       1
    29    7   33       1
    30   10   26       1
    31   11   27       1
    32   12   28       1
    33   14   29       1
    34   15   30       1
    35   16   31       1
    36   17   32       1
@<TRIPOS>SUBSTRUCTURE
     1 0J6301      1 GROUP             4 A     0J6     0 **** 0J6 A 301
