@<TRIPOS>MOLECULE
3c16_GSP_2_ligand
   44    46     1     0     0
SMALL
NO_CHARGES


@<TRIPOS>ATOM
     1 PG          23.7080    -3.2180    42.0610 P.3          1 GSP395   0.0000
     2 O3B         22.6850    -3.4640    43.3030 O.3          1 GSP395   0.0000
     3 S1G         25.0280    -4.3160    42.0820 S.2          1 GSP395   0.0000
     4 O2G         22.9270    -3.3360    40.7160 O.co2        1 GSP395  -1.0000
     5 O3G         24.3290    -1.8100    42.2060 O.co2        1 GSP395  -1.0000
     6 PB          21.2010    -2.8420    43.2810 P.3          1 GSP395   0.0000
     7 O1B         21.2220    -1.4430    43.7300 O.co2        1 GSP395   0.0000
     8 O2B         20.6210    -2.9600    41.9330 O.co2        1 GSP395  -1.0000
     9 PA          19.0920    -4.5460    43.8580 P.3          1 GSP395   0.0000
    10 O1A         18.0470    -3.6250    43.3680 O.co2        1 GSP395   0.0000
    11 O2A         19.4820    -5.5410    42.8290 O.co2        1 GSP395  -1.0000
    12 O3A         20.3650    -3.7000    44.3370 O.3          1 GSP395   0.0000
    13 O5'         18.5660    -5.2220    45.2170 O.3          1 GSP395   0.0000
    14 C5'         19.1100    -6.4580    45.6300 C.3          1 GSP395   0.0000
    15 C4'         18.0090    -7.4130    46.0740 C.3          1 GSP395   0.0000
    16 O4'         17.4570    -6.9780    47.3070 O.3          1 GSP395   0.0000
    17 C3'         16.8830    -7.4830    45.0570 C.3          1 GSP395   0.0000
    18 O3'         16.7830    -8.8050    44.5800 O.3          1 GSP395   0.0000
    19 C2'         15.6450    -7.0450    45.8260 C.3          1 GSP395   0.0000
    20 O2'         14.5400    -7.8950    45.6410 O.3          1 GSP395   0.0000
    21 C1'         16.0510    -7.0520    47.2900 C.3          1 GSP395   0.0000
    22 N9          15.4640    -5.8790    47.9640 N.pl3        1 GSP395   0.0000
    23 C8          15.5320    -4.5750    47.5410 C.2          1 GSP395   0.0000
    24 N7          14.8650    -3.8030    48.4250 N.2          1 GSP395   0.0000
    25 C5          14.3690    -4.5880    49.4010 C.2          1 GSP395   0.0000
    26 C6          13.6180    -4.3110    50.5340 C.2          1 GSP395   0.0000
    27 O6          13.2850    -3.1630    50.7960 O.2          1 GSP395   0.0000
    28 N1          13.2430    -5.3290    51.3750 N.pl3        1 GSP395   0.0000
    29 C2          13.6170    -6.6250    51.0860 C.2          1 GSP395   0.0000
    30 N2          13.2510    -7.6110    51.8970 N.pl3        1 GSP395   0.0000
    31 N3          14.3640    -6.8980    49.9550 N.2          1 GSP395   0.0000
    32 C4          14.7360    -5.8960    49.1240 C.2          1 GSP395   0.0000
    33 H5'1        19.7360    -6.3017    46.3940 H            1 GSP395   0.0000
    34 H5'2        19.6107    -6.8670    44.8671 H            1 GSP395   0.0000
    35 H4'         18.3978    -8.3264    46.1943 H            1 GSP395   0.0000
    36 H3'         17.0607    -6.8543    44.2999 H            1 GSP395   0.0000
    37 H5          15.8731    -9.1655    44.7852 H            1 GSP395   0.0000
    38 H2'         15.3974    -6.1149    45.5546 H            1 GSP395   0.0000
    39 H7          14.0030    -7.5782    44.8591 H            1 GSP395   0.0000
    40 H1'         15.7431    -7.8951    47.7309 H            1 GSP395   0.0000
    41 H9          15.9971    -4.2514    46.7170 H            1 GSP395   0.0000
    42 H10         12.7018    -5.1323    52.1925 H            1 GSP395   0.0000
    43 H11         13.5193    -8.5524    51.6924 H            1 GSP395   0.0000
    44 H12         12.7071    -7.4121    52.7122 H            1 GSP395   0.0000
@<TRIPOS>BOND
     1    1    2       1
     2    1    3       2
     3    1    4      ar
     4    1    5      ar
     5    2    6       1
     6    6    7      ar
     7    6    8      ar
     8    6   12       1
     9    9   10      ar
    10    9   11      ar
    11    9   12       1
    12    9   13       1
    13   13   14       1
    14   14   15       1
    15   15   16       1
    16   15   17       1
    17   16   21       1
    18   17   18       1
    19   17   19       1
    20   19   20       1
    21   19   21       1
    22   21   22       1
    23   22   23       1
    24   22   32       1
    25   23   24       2
    26   24   25       1
    27   25   26       1
    28   25   32       2
    29   26   27       2
    30   26   28       1
    31   28   29       1
    32   29   30       1
    33   29   31       2
    34   31   32       1
    35   30   44       1
    36   30   43       1
    37   28   42       1
    38   23   41       1
    39   14   33       1
    40   14   34       1
    41   15   35       1
    42   17   36       1
    43   18   37       1
    44   19   38       1
    45   20   39       1
    46   21   40       1
@<TRIPOS>SUBSTRUCTURE
     1 GSP395      1 GROUP             4 C     GSP     0 **** GSP C 395
