@<TRIPOS>MOLECULE
3in6_FMN_2_ligand
   50    52     1     0     0
SMALL
NO_CHARGES


@<TRIPOS>ATOM
     1 N1           0.2370   -21.2210    16.7650 N.2          1 FMN148   0.0000
     2 C2           0.2540   -19.9860    16.1670 C.2          1 FMN148   0.0000
     3 O2           0.9080   -19.8270    15.1320 O.2          1 FMN148   0.0000
     4 N3          -0.4740   -18.9430    16.7270 N.pl3        1 FMN148   0.0000
     5 C4          -1.2070   -19.1400    17.8890 C.2          1 FMN148   0.0000
     6 O4          -1.8420   -18.2120    18.3920 O.2          1 FMN148   0.0000
     7 C4A         -1.2150   -20.3890    18.4930 C.2          1 FMN148   0.0000
     8 N5          -1.9410   -20.5960    19.6530 N.2          1 FMN148   0.0000
     9 C5A         -1.9410   -21.8400    20.2490 C.ar         1 FMN148   0.0000
    10 C6          -2.6820   -22.0140    21.4160 C.ar         1 FMN148   0.0000
    11 C7          -2.7120   -23.2510    22.0460 C.ar         1 FMN148   0.0000
    12 C7M         -3.5190   -23.4140    23.3040 C.3          1 FMN148   0.0000
    13 C8          -2.0040   -24.3220    21.5000 C.ar         1 FMN148   0.0000
    14 C8M         -2.0390   -25.6670    22.1710 C.3          1 FMN148   0.0000
    15 C9          -1.2710   -24.1530    20.3240 C.ar         1 FMN148   0.0000
    16 C9A         -1.2250   -22.9030    19.6860 C.ar         1 FMN148   0.0000
    17 N10         -0.4980   -22.6940    18.5030 N.pl3        1 FMN148   0.0000
    18 C10         -0.4860   -21.4370    17.9230 C.2          1 FMN148   0.0000
    19 C1'          0.3220   -23.7830    17.8480 C.3          1 FMN148   0.0000
    20 C2'         -0.3610   -24.4170    16.6340 C.3          1 FMN148   0.0000
    21 O2'         -1.6270   -24.9070    16.9920 O.3          1 FMN148   0.0000
    22 C3'          0.5290   -25.5370    16.0820 C.3          1 FMN148   0.0000
    23 O3'          1.6580   -24.9280    15.4790 O.3          1 FMN148   0.0000
    24 C4'         -0.2090   -26.4620    15.1010 C.3          1 FMN148   0.0000
    25 O4'          0.5090   -27.6560    14.8730 O.3          1 FMN148   0.0000
    26 C5'         -0.4060   -25.7930    13.7580 C.3          1 FMN148   0.0000
    27 O5'         -1.1380   -26.6390    12.9160 O.3          1 FMN148   0.0000
    28 P           -0.9270   -26.6320    11.3180 P.3          1 FMN148   0.0000
    29 O1P         -1.2700   -25.2660    10.7750 O.co2        1 FMN148   0.0000
    30 O2P         -1.8650   -27.6620    10.7350 O.co2        1 FMN148  -1.0000
    31 O3P          0.5040   -27.0060    10.9540 O.co2        1 FMN148  -1.0000
    32 H1          -0.4697   -18.0438    16.2894 H            1 FMN148   0.0000
    33 H2          -3.1937   -21.2459    21.8009 H            1 FMN148   0.0000
    34 H7M1        -3.4384   -24.3552    23.6321 H            1 FMN148   0.0000
    35 H7M2        -3.1764   -22.7867    24.0034 H            1 FMN148   0.0000
    36 H7M3        -4.4789   -23.2085    23.1132 H            1 FMN148   0.0000
    37 H8M1        -1.4815   -26.3138    21.6505 H            1 FMN148   0.0000
    38 H8M2        -1.6762   -25.5859    23.0993 H            1 FMN148   0.0000
    39 H8M3        -2.9826   -25.9959    22.2094 H            1 FMN148   0.0000
    40 H9          -0.7748   -24.9282    19.9329 H            1 FMN148   0.0000
    41 H1'1         0.4939   -24.4994    18.5241 H            1 FMN148   0.0000
    42 H1'2         1.1919   -23.3889    17.5515 H            1 FMN148   0.0000
    43 H2'         -0.4744   -23.7185    15.9275 H            1 FMN148   0.0000
    44 H13         -2.3118   -24.1906    16.8582 H            1 FMN148   0.0000
    45 H3'          0.8474   -26.0900    16.8520 H            1 FMN148   0.0000
    46 H15          2.2599   -25.6352    15.1081 H            1 FMN148   0.0000
    47 H4'         -1.1044   -26.6907    15.4831 H            1 FMN148   0.0000
    48 H17          0.0020   -28.2326    14.2323 H            1 FMN148   0.0000
    49 H5'1         0.4854   -25.6035    13.3464 H            1 FMN148   0.0000
    50 H5'2        -0.9045   -24.9352    13.8832 H            1 FMN148   0.0000
@<TRIPOS>BOND
     1    1    2       1
     2    1   18       2
     3    2    3       2
     4    2    4       1
     5    4    5       1
     6    5    6       2
     7    5    7       1
     8    7    8       2
     9    7   18       1
    10    8    9       1
    11    9   10      ar
    12    9   16      ar
    13   10   11      ar
    14   11   12       1
    15   11   13      ar
    16   13   14       1
    17   13   15      ar
    18   15   16      ar
    19   16   17       1
    20   17   18       1
    21   17   19       1
    22   19   20       1
    23   20   21       1
    24   20   22       1
    25   22   23       1
    26   22   24       1
    27   24   25       1
    28   24   26       1
    29   26   27       1
    30   27   28       1
    31   28   29      ar
    32   28   30      ar
    33   28   31      ar
    34    4   32       1
    35   10   33       1
    36   12   34       1
    37   12   35       1
    38   12   36       1
    39   14   37       1
    40   14   38       1
    41   14   39       1
    42   15   40       1
    43   19   41       1
    44   19   42       1
    45   20   43       1
    46   21   44       1
    47   22   45       1
    48   23   46       1
    49   24   47       1
    50   25   48       1
    51   26   49       1
    52   26   50       1
@<TRIPOS>SUBSTRUCTURE
     1 FMN148      1 GROUP             4 B     FMN     0 **** FMN B 148
