@<TRIPOS>MOLECULE
3zei_AWH_1_ligand
   46    48     1     0     0
SMALL
NO_CHARGES


@<TRIPOS>ATOM
     1 O5         -18.6200     4.2900    -6.6930 O.co2        1 AWH1302   0.0000
     2 C19        -18.6910     5.4000    -6.1520 C.2          1 AWH1302   0.0000
     3 O6         -17.8820     6.3820    -6.5880 O.co2        1 AWH1302  -1.0000
     4 C18        -19.5680     5.6960    -4.9350 C.ar         1 AWH1302   0.0000
     5 C17        -20.4860     4.8020    -4.3560 C.ar         1 AWH1302   0.0000
     6 C16        -21.2230     5.1700    -3.2190 C.ar         1 AWH1302   0.0000
     7 C15        -21.0200     6.4330    -2.6240 C.ar         1 AWH1302   0.0000
     8 C20        -19.3730     6.9310    -4.3410 C.ar         1 AWH1302   0.0000
     9 C14        -20.0860     7.3070    -3.2050 C.ar         1 AWH1302   0.0000
    10 N2         -19.8200     8.5430    -2.7280 N.pl3        1 AWH1302   0.0000
    11 C13        -20.1400     9.6820    -3.4020 C.2          1 AWH1302   0.0000
    12 N1         -19.8360    10.8980    -2.8980 N.2          1 AWH1302   1.0000
    13 C1         -19.1170    11.1590    -1.6160 C.3          1 AWH1302   0.0000
    14 S          -20.9490     9.7200    -4.8970 S.3          1 AWH1302   0.0000
    15 C3         -20.9560    11.3960    -4.9300 C.2          1 AWH1302   0.0000
    16 C2         -20.2960    11.8260    -3.7820 C.2          1 AWH1302   0.0000
    17 O1         -20.1490    13.0740    -3.5600 O.3          1 AWH1302   0.0000
    18 C4         -21.5400    12.1900    -6.0500 C.3          1 AWH1302   0.0000
    19 C5         -22.2510    11.6390    -7.2420 C.ar         1 AWH1302   0.0000
    20 C10        -23.3300    12.3880    -7.7270 C.ar         1 AWH1302   0.0000
    21 O2         -23.6330    13.5570    -7.0630 O.3          1 AWH1302   0.0000
    22 C11        -24.0020    14.7790    -7.6960 C.3          1 AWH1302   0.0000
    23 C12        -25.2380    15.2730    -6.9770 C.2          1 AWH1302   0.0000
    24 O4         -26.4570    15.0520    -7.4630 O.co2        1 AWH1302   0.0000
    25 O3         -25.1290    15.8750    -5.9240 O.co2        1 AWH1302  -1.0000
    26 C9         -24.0800    11.9450    -8.8340 C.ar         1 AWH1302   0.0000
    27 C8         -23.7400    10.7450    -9.4710 C.ar         1 AWH1302   0.0000
    28 C7         -22.6560     9.9950    -8.9860 C.ar         1 AWH1302   0.0000
    29 C6         -21.9170    10.4320    -7.8750 C.ar         1 AWH1302   0.0000
    30 H1         -20.6152     3.8955    -4.7579 H            1 AWH1302   0.0000
    31 H2         -21.8922     4.5365    -2.8307 H            1 AWH1302   0.0000
    32 H3         -21.5299     6.7004    -1.8064 H            1 AWH1302   0.0000
    33 H4         -18.7077     7.5652    -4.7349 H            1 AWH1302   0.0000
    34 H5         -19.3677     8.6249    -1.8399 H            1 AWH1302   0.0000
    35 H6         -19.0231    12.1454    -1.4813 H            1 AWH1302   0.0000
    36 H7         -19.6364    10.7669    -0.8567 H            1 AWH1302   0.0000
    37 H8         -18.2099    10.7395    -1.6512 H            1 AWH1302   0.0000
    38 H9         -20.4925    13.7430    -4.2192 H            1 AWH1302   0.0000
    39 H10        -20.7768    12.7186    -6.4217 H            1 AWH1302   0.0000
    40 H11        -22.1953    12.8095    -5.6177 H            1 AWH1302   0.0000
    41 H12        -24.2036    14.6212    -8.6627 H            1 AWH1302   0.0000
    42 H13        -23.2633    15.4481    -7.6144 H            1 AWH1302   0.0000
    43 H14        -24.8534    12.4861    -9.1643 H            1 AWH1302   0.0000
    44 H15        -24.2627    10.4260   -10.2616 H            1 AWH1302   0.0000
    45 H16        -22.4072     9.1384    -9.4380 H            1 AWH1302   0.0000
    46 H17        -21.1531     9.8834    -7.5350 H            1 AWH1302   0.0000
@<TRIPOS>BOND
     1    1    2      ar
     2    2    3      ar
     3    2    4       1
     4    4    5      ar
     5    4    8      ar
     6    5    6      ar
     7    6    7      ar
     8    7    9      ar
     9    8    9      ar
    10    9   10       1
    11   10   11       1
    12   11   12       2
    13   11   14       1
    14   12   13       1
    15   12   16       1
    16   14   15       1
    17   15   16       2
    18   15   18       1
    19   16   17       1
    20   18   19       1
    21   19   20      ar
    22   19   29      ar
    23   20   21       1
    24   20   26      ar
    25   21   22       1
    26   22   23       1
    27   23   24      ar
    28   23   25      ar
    29   26   27      ar
    30   27   28      ar
    31   28   29      ar
    32   29   46       1
    33    5   30       1
    34    6   31       1
    35    7   32       1
    36    8   33       1
    37   10   34       1
    38   13   35       1
    39   13   36       1
    40   13   37       1
    41   17   38       1
    42   18   39       1
    43   18   40       1
    44   22   41       1
    45   22   42       1
    46   28   45       1
    47   26   43       1
    48   27   44       1
@<TRIPOS>SUBSTRUCTURE
     1 AWH1302     1 GROUP             4 A     AWH     0 **** AWH A1302
