@<TRIPOS>MOLECULE
1z1f_STL_1_ligand
   31    32     1     0     0
SMALL
NO_CHARGES


@<TRIPOS>ATOM
     1 C1          20.3890    31.0400    12.3910 C.2          1 STL400   0.0000
     2 C2          21.3660    31.4950    13.3650 C.3          1 STL400   0.0000
     3 C3          20.8630    32.4890    14.2920 C.3          1 STL400   0.0000
     4 C4          20.0300    33.5030    13.7250 C.3          1 STL400   0.0000
     5 C5          18.9940    33.0320    12.8400 C.2          1 STL400   0.0000
     6 C6          19.1750    31.7780    12.1400 C.2          1 STL400   0.0000
     7 C7          17.7950    33.7750    12.5950 C.2          1 STL400   0.0000
     8 C8          16.8420    33.9800    13.6050 C.2          1 STL400   0.0000
     9 C9          15.6590    34.7430    13.3420 C.ar         1 STL400   0.0000
    10 C10         14.6840    34.2970    12.3590 C.ar         1 STL400   0.0000
    11 C11         13.5060    35.1200    12.1320 C.ar         1 STL400   0.0000
    12 C12         13.3400    36.3420    12.8810 C.ar         1 STL400   0.0000
    13 C13         14.3050    36.8020    13.8690 C.ar         1 STL400   0.0000
    14 C14         15.4640    35.9600    14.0680 C.ar         1 STL400   0.0000
    15 O1          12.2590    37.1430    12.7050 O.3          1 STL400   0.0000
    16 O2          21.8740    32.9080    15.1320 O.3          1 STL400   0.0000
    17 O3          20.8160    30.0630    11.5880 O.2          1 STL400   0.0000
    18 H1          22.1404    31.8904    12.8711 H            1 STL400   0.0000
    19 H2          21.6757    30.7034    13.8917 H            1 STL400   0.0000
    20 H3          20.2477    31.9749    14.8896 H            1 STL400   0.0000
    21 H4          20.6146    34.1292    13.2092 H            1 STL400   0.0000
    22 H5          19.5924    33.9977    14.4758 H            1 STL400   0.0000
    23 H6          18.4829    31.4353    11.5048 H            1 STL400   0.0000
    24 H7          17.6330    34.1561    11.6848 H            1 STL400   0.0000
    25 H8          16.9901    33.5907    14.5141 H            1 STL400   0.0000
    26 H9          14.8200    33.4459    11.8519 H            1 STL400   0.0000
    27 H10         12.8173    34.8412    11.4627 H            1 STL400   0.0000
    28 H11         14.1741    37.6512    14.3806 H            1 STL400   0.0000
    29 H12         16.1534    36.2385    14.7367 H            1 STL400   0.0000
    30 H13         12.1684    37.9847    13.2372 H            1 STL400   0.0000
    31 H14         21.5172    33.5930    15.7672 H            1 STL400   0.0000
@<TRIPOS>BOND
     1    1    2       1
     2    1    6       1
     3    1   17       2
     4    2    3       1
     5    3    4       1
     6    3   16       1
     7    4    5       1
     8    5    6       2
     9    5    7       1
    10    7    8       2
    11    8    9       1
    12    9   10      ar
    13    9   14      ar
    14   10   11      ar
    15   11   12      ar
    16   12   13      ar
    17   12   15       1
    18   13   14      ar
    19    2   18       1
    20    2   19       1
    21    3   20       1
    22    4   21       1
    23    4   22       1
    24    6   23       1
    25    7   24       1
    26    8   25       1
    27   10   26       1
    28   11   27       1
    29   13   28       1
    30   14   29       1
    31   15   30       1
    32   16   31       1
@<TRIPOS>SUBSTRUCTURE
     1 STL400      1 GROUP             4 A     STL     0 **** STL A 400
