@<TRIPOS>MOLECULE
./coach420/1htf/ligand.pdb
 81 82 0 0 0
SMALL
GASTEIGER

@<TRIPOS>ATOM
      1  C         18.5360   -4.4350   -1.2690 C.3   100  G26100      0.0047
      2  C1        18.5990   -3.3150   -2.3250 C.3   100  G26100      0.1762
      3  C2        17.4840   -5.0520   -3.6840 C.3   100  G26100      0.1591
      4  C3        18.3920   -5.3220   -4.8780 C.3   100  G26100      0.1995
      5  C4        18.4280   -6.7880   -5.2930 C.2   100  G26100      0.2639
      6  C5        17.3920   -4.2880   -0.2630 C.3   100  G26100      0.0000
      7  C6        19.8710   -4.6020   -0.5480 C.3   100  G26100      0.0000
      8  C7        18.4520   -1.9040   -1.7160 C.2   100  G26100      0.2592
      9  C8        19.4160   -0.1170   -0.3840 C.3   100  G26100      0.1471
     10  C9        19.6620   -8.5540   -6.4090 C.3   100  G26100      0.1415
     11  C10       20.5110   -0.0220    0.6760 C.3   100  G26100      0.1656
     12  C11       18.8200   -3.5370   -6.4130 C.2   100  G26100      0.2463
     13  C12       18.1990   -2.4570   -7.2810 C.3   100  G26100      0.1131
     14  C13       17.4680   -0.9770   -5.4030 C.ar  100  G26100     -0.0038
     15  C14       18.2590   -1.1540   -6.5230 C.ar  100  G26100     -0.0130
     16  C15       19.1060   -0.1510   -6.9130 C.ar  100  G26100     -0.0038
     17  C16       19.1600    1.0110   -6.1870 C.ar  100  G26100     -0.0003
     18  C17       18.3750    1.1830   -5.0750 C.ar  100  G26100     -0.0000
     19  C18       17.5240    0.1870   -4.6720 C.ar  100  G26100     -0.0003
     20  C19       19.3610    1.1110   -1.3090 C.3   100  G26100      0.0307
     21  C20       18.4030    4.6450    0.9050 C.2   100  G26100     -0.0258
     22  C21       19.7150    4.2540    0.7730 C.2   100  G26100     -0.0049
     23  C22       20.0300    3.1240    0.0450 C.2   100  G26100     -0.0046
     24  C23       19.0390    2.3760   -0.5460 C.2   100  G26100     -0.0261
     25  C24       17.7290    2.7680   -0.4060 C.2   100  G26100     -0.0300
     26  C25       17.4070    3.9020    0.3150 C.3   100  G26100      0.0304
     27  C26       18.8410   -8.3630  -10.0950 C.ar  100  G26100     -0.0003
     28  C27       17.5230   -8.7680  -10.1110 C.ar  100  G26100     -0.0000
     29  C28       16.8990   -9.1240   -8.9330 C.ar  100  G26100     -0.0003
     30  C29       17.5950   -9.0670   -7.7430 C.ar  100  G26100     -0.0026
     31  C30       18.9130   -8.6530   -7.7190 C.ar  100  G26100     -0.0006
     32  C31       19.5340   -8.3090   -8.9030 C.ar  100  G26100     -0.0026
     33  N         17.5670   -3.6540   -3.3230 N.3   100  G26100     -0.1957
     34  N1        19.5300   -1.3770   -1.1390 N.am  100  G26100     -0.2015
     35  N2        17.9630   -4.4250   -5.9570 N.am  100  G26100     -0.1951
     36  N3        19.5730   -7.2200   -5.8050 N.am  100  G26100     -0.1990
     37  O         17.3960   -1.2880   -1.7290 O.2   100  G26100     -0.2718
     38  O1        17.4550   -7.5160   -5.2150 O.2   100  G26100     -0.2714
     39  O2        20.0090   -3.5690   -6.1390 O.2   100  G26100     -0.2730
     40  O4        21.7830    0.1040    0.0630 O.3   100  G26100      0.0000
     41  S         18.1320   -5.9430   -2.2500 S.3   100  G26100     -0.0615
     42  C1        18.4580    3.2440    2.2930 C.3   100  G26100      0.1762
     43  C2        17.5490    5.1160    3.5890 C.3   100  G26100      0.1591
     44  C3        18.4590    5.3740    4.7890 C.3   100  G26100      0.1995
     45  C4        18.4600    6.8680    5.1520 C.2   100  G26100      0.2639
     46  C5        17.4080    4.3540    0.2220 C.3   100  G26100      0.0307
     47  C6        19.9170    4.3570    0.5260 C.2   100  G26100     -0.0003
     48  C7        18.2080    1.8540    1.7090 C.2   100  G26100      0.2592
     49  C8        19.2390    0.0440    0.4170 C.3   100  G26100      0.1471
     50  C9        19.6500    8.7030    6.2390 C.3   100  G26100      0.1415
     51  C10       20.3880    0.0370   -0.5970 C.3   100  G26100      0.1656
     52  C11       18.8590    3.4980    6.2450 C.2   100  G26100      0.2463
     53  C12       18.2710    2.4920    7.2150 C.3   100  G26100      0.1131
     54  C13       17.6780    0.9130    5.3720 C.ar  100  G26100     -0.0038
     55  C14       18.3280    1.1290    6.5770 C.ar  100  G26100     -0.0130
     56  C15       19.0210    0.0980    7.1770 C.ar  100  G26100     -0.0038
     57  C16       19.0570   -1.1300    6.5620 C.ar  100  G26100     -0.0003
     58  C17       18.4150   -1.3290    5.3570 C.ar  100  G26100     -0.0000
     59  C18       17.7190   -0.3100    4.7600 C.ar  100  G26100     -0.0003
     60  C19       19.1970   -1.2060    1.3200 C.3   100  G26100      0.0307
     61  C20       18.2030   -4.8560   -0.7260 C.3   100  G26100      0.0003
     62  C21       19.5250   -4.4950   -0.5790 C.3   100  G26100      0.0257
     63  C22       19.8590   -3.3270    0.0720 C.2   100  G26100     -0.0304
     64  C23       18.8680   -2.5060    0.5820 C.2   100  G26100     -0.0261
     65  C24       17.5550   -2.8900    0.4210 C.2   100  G26100     -0.0046
     66  C25       17.2110   -4.0550   -0.2240 C.2   100  G26100     -0.0003
     67  C26       19.4510    9.8560    9.8350 C.ar  100  G26100     -0.0003
     68  C27       18.0980    9.7760   10.0850 C.ar  100  G26100     -0.0000
     69  C28       17.2430    9.3340    9.0970 C.ar  100  G26100     -0.0003
     70  C29       17.7420    8.9760    7.8590 C.ar  100  G26100     -0.0026
     71  C30       19.0980    9.0560    7.6010 C.ar  100  G26100     -0.0006
     72  C31       19.9470    9.4960    8.5990 C.ar  100  G26100     -0.0026
     73  N         17.4500    3.7180    3.2440 N.3   100  G26100     -0.1957
     74  N1        19.2830    1.2850    1.1750 N.am  100  G26100     -0.2015
     75  N2        18.0550    4.4920    5.8910 N.am  100  G26100     -0.1951
     76  N3        19.5100    7.3020    5.8370 N.am  100  G26100     -0.1990
     77  O         17.1220    1.3050    1.7020 O.2   100  G26100     -0.2718
     78  O1        17.5570    7.6270    4.8440 O.2   100  G26100     -0.2714
     79  O2        20.0010    3.3940    5.8350 O.2   100  G26100     -0.2730
     80  O4        21.6500   -0.0540    0.0440 O.3   100  G26100     -0.3500
     81  S         18.3550    5.8670    2.1630 S.3   100  G26100     -0.0615
@<TRIPOS>BOND
     1     1    61    1
     2     1    62    1
     3     2    33    1
     4     2     8    1
     5     3     4    1
     6     3    33    1
     7     3    41    1
     8     4    35    1
     9     4     5    1
    10     5    36   am
    11     5    38    2
    12     6    61    1
    13     8    37    2
    14     8    34   am
    15     9    34    1
    16     9    51    1
    17     9    49    1
    18    10    31    1
    19    10    36    1
    20    11    51    1
    21    11    80    1
    22    11    49    1
    23    12    13    1
    24    12    39    2
    25    12    35   am
    26    13    15    1
    27    14    15   ar
    28    14    19   ar
    29    15    16   ar
    30    16    17   ar
    31    17    18   ar
    32    18    19   ar
    33    20    24    1
    34    21    46    1
    35    21    22    2
    36    23    24    1
    37    23    47    2
    38    24    25    2
    39    25    26    1
    40    26    46    1
    41    27    28   ar
    42    27    32   ar
    43    28    29   ar
    44    29    30   ar
    45    30    31   ar
    46    31    32   ar
    47    42    48    1
    48    42    73    1
    49    43    81    1
    50    43    73    1
    51    43    44    1
    52    44    45    1
    53    44    75    1
    54    45    78    2
    55    45    76   am
    56    48    74   am
    57    48    77    2
    58    49    74    1
    59    50    76    1
    60    50    71    1
    61    51    80    1
    62    52    79    2
    63    52    75   am
    64    52    53    1
    65    53    55    1
    66    54    59   ar
    67    54    55   ar
    68    55    56   ar
    69    56    57   ar
    70    57    58   ar
    71    58    59   ar
    72    60    64    1
    73    62    63    1
    74    63    64    2
    75    64    65    1
    76    65    66    2
    77    67    72   ar
    78    67    68   ar
    79    68    69   ar
    80    69    70   ar
    81    70    71   ar
    82    71    72   ar
