@<TRIPOS>MOLECULE
1xkq_NDP_4_ligand
   73    77     1     0     0
SMALL
NO_CHARGES


@<TRIPOS>ATOM
     1 PA         -43.6350    29.3730   -12.1070 P.3          1 NDP4281   0.0000
     2 O1A        -42.3730    28.8140   -12.5550 O.co2        1 NDP4281   0.0000
     3 O2A        -44.3550    30.5590   -12.4050 O.co2        1 NDP4281  -1.0000
     4 O5B        -44.0090    28.7260   -10.6760 O.3          1 NDP4281   0.0000
     5 C5B        -45.2500    29.1330    -9.9590 C.3          1 NDP4281   0.0000
     6 C4B        -45.3220    28.1440    -8.7920 C.3          1 NDP4281   0.0000
     7 O4B        -46.1760    28.5580    -7.6870 O.3          1 NDP4281   0.0000
     8 C3B        -45.9100    26.7580    -9.2380 C.3          1 NDP4281   0.0000
     9 O3B        -45.3210    25.6770    -8.5670 O.3          1 NDP4281   0.0000
    10 C2B        -47.4200    27.0790    -9.0370 C.3          1 NDP4281   0.0000
    11 O2B        -48.3030    25.9710    -8.9520 O.3          1 NDP4281   0.0000
    12 C1B        -47.3460    27.9030    -7.7250 C.3          1 NDP4281   0.0000
    13 N9A        -48.5200    28.6540    -7.5090 N.pl3        1 NDP4281   0.0000
    14 C8A        -48.9680    29.8570    -8.0530 C.2          1 NDP4281   0.0000
    15 N7A        -50.1250    30.2130    -7.5870 N.2          1 NDP4281   0.0000
    16 C5A        -50.4930    29.2240    -6.6920 C.ar         1 NDP4281   0.0000
    17 C6A        -51.6220    28.9990    -5.8480 C.ar         1 NDP4281   0.0000
    18 N6A        -52.7110    29.8060    -5.7280 N.pl3        1 NDP4281   0.0000
    19 N1A        -51.6520    27.8410    -5.0510 N.ar         1 NDP4281   0.0000
    20 C2A        -50.5830    26.9740    -5.1190 C.ar         1 NDP4281   0.0000
    21 N3A        -49.5120    27.1160    -5.8650 N.ar         1 NDP4281   0.0000
    22 C4A        -49.5020    28.2620    -6.6450 C.ar         1 NDP4281   0.0000
    23 O3         -42.6510    30.5060   -11.3570 O.3          1 NDP4281   0.0000
    24 PN         -41.0430    30.6160   -10.9310 P.3          1 NDP4281   0.0000
    25 O1N        -40.3690    31.7440   -10.3620 O.co2        1 NDP4281   0.0000
    26 O2N        -40.4210    29.3670   -10.6110 O.co2        1 NDP4281  -1.0000
    27 O5D        -41.7520    30.5690    -9.4490 O.3          1 NDP4281   0.0000
    28 C5D        -42.4500    31.6640    -8.8620 C.3          1 NDP4281   0.0000
    29 C4D        -41.7550    32.2930    -7.6620 C.3          1 NDP4281   0.0000
    30 O4D        -40.4590    32.9050    -8.0870 O.3          1 NDP4281   0.0000
    31 C3D        -42.5460    33.4670    -7.0620 C.3          1 NDP4281   0.0000
    32 O3D        -42.3520    33.5640    -5.6370 O.3          1 NDP4281   0.0000
    33 C2D        -41.9850    34.5840    -7.8990 C.3          1 NDP4281   0.0000
    34 O2D        -42.3680    35.8940    -7.5110 O.3          1 NDP4281   0.0000
    35 C1D        -40.4990    34.2740    -7.8270 C.3          1 NDP4281   0.0000
    36 N1N        -39.7070    35.1360    -8.8100 N.ar         1 NDP4281   1.0000
    37 C2N        -39.6010    34.6580   -10.1790 C.ar         1 NDP4281   0.0000
    38 C3N        -38.8800    35.4520   -11.0940 C.ar         1 NDP4281   0.0000
    39 C7N        -38.7120    34.9800   -12.6270 C.2          1 NDP4281   0.0000
    40 O7N        -38.0860    35.7210   -13.3530 O.2          1 NDP4281   0.0000
    41 N7N        -39.2860    33.8000   -12.9390 N.am         1 NDP4281   0.0000
    42 C4N        -38.2500    36.6990   -10.7520 C.ar         1 NDP4281   0.0000
    43 C5N        -38.4140    37.0660    -9.3810 C.ar         1 NDP4281   0.0000
    44 C6N        -39.1070    36.3460    -8.4040 C.ar         1 NDP4281   0.0000
    45 P2B        -48.9450    25.2510   -10.2930 P.3          1 NDP4281   0.0000
    46 O1X        -49.8590    24.1040   -10.1000 O.co2        1 NDP4281   0.0000
    47 O2X        -48.7860    26.1540   -11.4920 O.co2        1 NDP4281  -1.0000
    48 O3X        -50.0680    26.1040    -9.9290 O.co2        1 NDP4281  -1.0000
    49 H5B1       -46.0509    29.0469   -10.5516 H            1 NDP4281   0.0000
    50 H5B2       -45.1802    30.0739    -9.6276 H            1 NDP4281   0.0000
    51 H4B        -44.3969    27.9986    -8.4413 H            1 NDP4281   0.0000
    52 H3B        -45.7415    26.6474   -10.2175 H            1 NDP4281   0.0000
    53 H5         -44.3382    25.6656    -8.7516 H            1 NDP4281   0.0000
    54 H2B        -47.7241    27.6780    -9.7777 H            1 NDP4281   0.0000
    55 H1B        -47.3090    27.2335    -6.9831 H            1 NDP4281   0.0000
    56 H8A        -48.4542    30.3868    -8.7278 H            1 NDP4281   0.0000
    57 H6A1       -53.4521    29.5563    -5.1048 H            1 NDP4281   0.0000
    58 H6A2       -52.7702    30.6488    -6.2630 H            1 NDP4281   0.0000
    59 H2A        -50.6274    26.1570    -4.5441 H            1 NDP4281   0.0000
    60 H5D1       -43.3480    31.3382    -8.5662 H            1 NDP4281   0.0000
    61 H5D2       -42.5651    32.3702    -9.5605 H            1 NDP4281   0.0000
    62 H4D        -41.5906    31.5991    -6.9610 H            1 NDP4281   0.0000
    63 H3D        -43.5193    33.3535    -7.2617 H            1 NDP4281   0.0000
    64 H16        -42.6610    32.7192    -5.2003 H            1 NDP4281   0.0000
    65 H2D        -42.2841    34.4422    -8.8426 H            1 NDP4281   0.0000
    66 H18        -41.9458    36.5605    -8.1255 H            1 NDP4281   0.0000
    67 H1D        -40.1701    34.4442    -6.8981 H            1 NDP4281   0.0000
    68 H2N        -40.0242    33.7971   -10.4614 H            1 NDP4281   0.0000
    69 H7N1       -39.2225    33.4441   -13.8714 H            1 NDP4281   0.0000
    70 H7N2       -39.7751    33.2810   -12.2380 H            1 NDP4281   0.0000
    71 H4N        -37.7451    37.2562   -11.4113 H            1 NDP4281   0.0000
    72 H5N        -37.9904    37.9243    -9.0914 H            1 NDP4281   0.0000
    73 H6N        -39.1742    36.6734    -7.4615 H            1 NDP4281   0.0000
@<TRIPOS>BOND
     1    1    2      ar
     2    1    3      ar
     3    1    4       1
     4    1   23       1
     5    4    5       1
     6    5    6       1
     7    6    7       1
     8    6    8       1
     9    7   12       1
    10    8    9       1
    11    8   10       1
    12   10   11       1
    13   10   12       1
    14   11   45       1
    15   12   13       1
    16   13   14       1
    17   13   22       1
    18   14   15       2
    19   15   16       1
    20   16   17      ar
    21   16   22      ar
    22   17   18       1
    23   17   19      ar
    24   19   20      ar
    25   20   21      ar
    26   21   22      ar
    27   23   24       1
    28   24   25      ar
    29   24   26      ar
    30   24   27       1
    31   27   28       1
    32   28   29       1
    33   29   30       1
    34   29   31       1
    35   30   35       1
    36   31   32       1
    37   31   33       1
    38   33   34       1
    39   33   35       1
    40   35   36       1
    41   36   37      ar
    42   36   44      ar
    43   37   38      ar
    44   38   39       1
    45   38   42      ar
    46   39   40       2
    47   39   41      am
    48   42   43      ar
    49   43   44      ar
    50   45   46      ar
    51   45   47      ar
    52   45   48      ar
    53   43   72       1
    54    5   49       1
    55    5   50       1
    56    6   51       1
    57    8   52       1
    58    9   53       1
    59   10   54       1
    60   12   55       1
    61   14   56       1
    62   18   57       1
    63   18   58       1
    64   20   59       1
    65   44   73       1
    66   28   60       1
    67   28   61       1
    68   29   62       1
    69   31   63       1
    70   32   64       1
    71   33   65       1
    72   34   66       1
    73   35   67       1
    74   37   68       1
    75   41   69       1
    76   41   70       1
    77   42   71       1
@<TRIPOS>SUBSTRUCTURE
     1 NDP4281     1 GROUP             4 D     NDP     0 **** NDP D4281
