@<TRIPOS>MOLECULE
4f4q_FAD_1_ligand
   84    89     1     0     0
SMALL
NO_CHARGES


@<TRIPOS>ATOM
     1 PA          -8.9090   -11.9150    20.7060 P.3          1 FAD502   0.0000
     2 O1A         -8.5380   -12.0630    22.1620 O.co2        1 FAD502   0.0000
     3 O2A         -7.8380   -11.9550    19.6480 O.co2        1 FAD502  -1.0000
     4 O5B        -10.0180   -13.0210    20.3370 O.3          1 FAD502   0.0000
     5 C5B        -11.1730   -13.1770    21.1630 C.3          1 FAD502   0.0000
     6 C4B        -12.1990   -14.0940    20.4990 C.3          1 FAD502   0.0000
     7 O4B        -12.9100   -13.3610    19.5040 O.3          1 FAD502   0.0000
     8 C3B        -11.5670   -15.2930    19.8080 C.3          1 FAD502   0.0000
     9 O3B        -12.3420   -16.4590    20.0830 O.3          1 FAD502   0.0000
    10 C2B        -11.6520   -14.9800    18.3360 C.3          1 FAD502   0.0000
    11 O2B        -11.8880   -16.1710    17.5860 O.3          1 FAD502   0.0000
    12 C1B        -12.8260   -14.0260    18.2480 C.3          1 FAD502   0.0000
    13 N9A        -12.6280   -13.0240    17.1850 N.pl3        1 FAD502   0.0000
    14 C8A        -11.7540   -12.0010    17.1930 C.2          1 FAD502   0.0000
    15 N7A        -11.8400   -11.2770    16.0490 N.2          1 FAD502   0.0000
    16 C5A        -12.7920   -11.8480    15.2860 C.ar         1 FAD502   0.0000
    17 C6A        -13.4050   -11.5950    13.9600 C.ar         1 FAD502   0.0000
    18 N6A        -13.0070   -10.5610    13.1820 N.pl3        1 FAD502   0.0000
    19 N1A        -14.3780   -12.4400    13.5500 N.ar         1 FAD502   0.0000
    20 C2A        -14.7980   -13.4810    14.2990 C.ar         1 FAD502   0.0000
    21 N3A        -14.2960   -13.7670    15.5120 N.ar         1 FAD502   0.0000
    22 C4A        -13.3100   -13.0000    16.0460 C.ar         1 FAD502   0.0000
    23 N1         -13.3960    -8.0890    28.8280 N.2          1 FAD502   0.0000
    24 C2         -14.5760    -7.5960    29.2790 C.2          1 FAD502   0.0000
    25 O2         -15.6350    -8.1050    28.8530 O.2          1 FAD502   0.0000
    26 N3         -14.6390    -6.5820    30.1670 N.pl3        1 FAD502   0.0000
    27 C4         -13.5400    -5.9860    30.6590 C.2          1 FAD502   0.0000
    28 O4         -13.6290    -5.0450    31.4770 O.2          1 FAD502   0.0000
    29 C4X        -12.2120    -6.4680    30.2090 C.2          1 FAD502   0.0000
    30 N5         -11.0560    -5.9290    30.6560 N.2          1 FAD502   0.0000
    31 C5X         -9.8510    -6.3850    30.2300 C.ar         1 FAD502   0.0000
    32 C6          -8.6810    -5.7960    30.7140 C.ar         1 FAD502   0.0000
    33 C7          -7.4360    -6.2530    30.2890 C.ar         1 FAD502   0.0000
    34 C7M         -6.1830    -5.6040    30.8230 C.3          1 FAD502   0.0000
    35 C8          -7.3590    -7.3760    29.3070 C.ar         1 FAD502   0.0000
    36 C8M         -6.0210    -7.8900    28.8300 C.3          1 FAD502   0.0000
    37 C9          -8.5270    -7.9660    28.8220 C.ar         1 FAD502   0.0000
    38 C9A         -9.7760    -7.5130    29.2470 C.ar         1 FAD502   0.0000
    39 N10        -10.9810    -8.0910    28.7680 N.pl3        1 FAD502   0.0000
    40 C10        -12.2100    -7.5860    29.2400 C.2          1 FAD502   0.0000
    41 C1'        -10.9770    -9.1970    27.8050 C.3          1 FAD502   0.0000
    42 C2'        -11.1280    -8.6960    26.3670 C.3          1 FAD502   0.0000
    43 O2'        -11.9870    -7.5490    26.2940 O.3          1 FAD502   0.0000
    44 C3'        -11.6870    -9.8150    25.4910 C.3          1 FAD502   0.0000
    45 O3'        -10.8810   -10.9840    25.6550 O.3          1 FAD502   0.0000
    46 C4'        -11.7360    -9.4760    24.0050 C.3          1 FAD502   0.0000
    47 O4'        -12.3840   -10.5720    23.3620 O.3          1 FAD502   0.0000
    48 C5'        -10.3470    -9.2820    23.3980 C.3          1 FAD502   0.0000
    49 O5'        -10.4240    -8.7540    22.0730 O.3          1 FAD502   0.0000
    50 P           -9.3110    -9.1220    20.9630 P.3          1 FAD502   0.0000
    51 O1P         -7.9510    -9.2010    21.6030 O.co2        1 FAD502   0.0000
    52 O2P         -9.5170    -8.1940    19.7960 O.co2        1 FAD502  -1.0000
    53 O3P         -9.7960   -10.5810    20.5130 O.3          1 FAD502   0.0000
    54 H5B1       -11.5876   -12.2804    21.3186 H            1 FAD502   0.0000
    55 H5B2       -10.8979   -13.5736    22.0388 H            1 FAD502   0.0000
    56 H4B        -12.8446   -14.4177    21.1907 H            1 FAD502   0.0000
    57 H3B        -10.6172   -15.4155    20.0960 H            1 FAD502   0.0000
    58 H5         -12.6783   -16.8458    19.2244 H            1 FAD502   0.0000
    59 H2B        -10.8138   -14.5319    18.0252 H            1 FAD502   0.0000
    60 H7         -11.1372   -16.3130    16.9409 H            1 FAD502   0.0000
    61 H1B        -13.6677   -14.5386    18.0785 H            1 FAD502   0.0000
    62 H8A        -11.1240   -11.8008    17.9434 H            1 FAD502   0.0000
    63 H6A1       -13.4362   -10.4114    12.2913 H            1 FAD502   0.0000
    64 H6A2       -12.2839    -9.9469    13.4981 H            1 FAD502   0.0000
    65 H2A        -15.5191   -14.0691    13.9328 H            1 FAD502   0.0000
    66 H13        -15.5368    -6.2623    30.4701 H            1 FAD502   0.0000
    67 H14         -8.7374    -5.0424    31.3689 H            1 FAD502   0.0000
    68 H7M1        -5.3812    -6.0462    30.4210 H            1 FAD502   0.0000
    69 H7M2        -6.1828    -4.6329    30.5842 H            1 FAD502   0.0000
    70 H7M3        -6.1544    -5.7027    31.8177 H            1 FAD502   0.0000
    71 H8M1        -6.1632    -8.6372    28.1807 H            1 FAD502   0.0000
    72 H8M2        -5.5201    -7.1496    28.3817 H            1 FAD502   0.0000
    73 H8M3        -5.4941    -8.2234    29.6118 H            1 FAD502   0.0000
    74 H21         -8.4682    -8.7182    28.1657 H            1 FAD502   0.0000
    75 H1'1       -11.7366    -9.8125    28.0152 H            1 FAD502   0.0000
    76 H1'2       -10.1131    -9.6941    27.8860 H            1 FAD502   0.0000
    77 H2'        -10.2249    -8.4410    26.0214 H            1 FAD502   0.0000
    78 H25        -12.6662    -7.5940    27.0266 H            1 FAD502   0.0000
    79 H3'        -12.6151   -10.0245    25.7988 H            1 FAD502   0.0000
    80 H27        -10.8927   -11.5182    24.8097 H            1 FAD502   0.0000
    81 H4'        -12.2763    -8.6453    23.8711 H            1 FAD502   0.0000
    82 H29        -13.2107   -10.2474    22.9025 H            1 FAD502   0.0000
    83 H5'1        -9.8787   -10.1651    23.3692 H            1 FAD502   0.0000
    84 H5'2        -9.8277    -8.6478    23.9709 H            1 FAD502   0.0000
@<TRIPOS>BOND
     1    1    2      ar
     2    1    3      ar
     3    1    4       1
     4    1   53       1
     5    4    5       1
     6    5    6       1
     7    6    7       1
     8    6    8       1
     9    7   12       1
    10    8    9       1
    11    8   10       1
    12   10   11       1
    13   10   12       1
    14   12   13       1
    15   13   14       1
    16   13   22       1
    17   14   15       2
    18   15   16       1
    19   16   17      ar
    20   16   22      ar
    21   17   18       1
    22   17   19      ar
    23   19   20      ar
    24   20   21      ar
    25   21   22      ar
    26   23   24       1
    27   23   40       2
    28   24   25       2
    29   24   26       1
    30   26   27       1
    31   27   28       2
    32   27   29       1
    33   29   30       2
    34   29   40       1
    35   30   31       1
    36   31   32      ar
    37   31   38      ar
    38   32   33      ar
    39   33   34       1
    40   33   35      ar
    41   35   36       1
    42   35   37      ar
    43   37   38      ar
    44   38   39       1
    45   39   40       1
    46   39   41       1
    47   41   42       1
    48   42   43       1
    49   42   44       1
    50   44   45       1
    51   44   46       1
    52   46   47       1
    53   46   48       1
    54   48   49       1
    55   49   50       1
    56   50   51      ar
    57   50   52      ar
    58   50   53       1
    59   48   84       1
    60    5   54       1
    61    5   55       1
    62    6   56       1
    63    8   57       1
    64    9   58       1
    65   10   59       1
    66   11   60       1
    67   12   61       1
    68   14   62       1
    69   18   63       1
    70   18   64       1
    71   20   65       1
    72   26   66       1
    73   32   67       1
    74   34   68       1
    75   34   69       1
    76   34   70       1
    77   36   71       1
    78   36   72       1
    79   36   73       1
    80   37   74       1
    81   41   75       1
    82   41   76       1
    83   42   77       1
    84   43   78       1
    85   44   79       1
    86   45   80       1
    87   46   81       1
    88   47   82       1
    89   48   83       1
@<TRIPOS>SUBSTRUCTURE
     1 FAD502      1 GROUP             4 A     FAD     0 **** FAD A 502
