@<TRIPOS>MOLECULE
5czy_SAM_1_ligand
   50    52     1     0     0
SMALL
NO_CHARGES


@<TRIPOS>ATOM
     1 N           22.6430    -1.0220    11.6130 N.4          1 SAM603   1.0000
     2 CA          21.3480    -1.6750    11.4600 C.3          1 SAM603   0.0000
     3 C           21.2420    -2.3420    10.0990 C.2          1 SAM603   0.0000
     4 O           22.1670    -2.2410     9.2860 O.co2        1 SAM603   0.0000
     5 OXT         20.2200    -2.9920     9.7910 O.co2        1 SAM603  -1.0000
     6 CB          20.1900    -0.6740    11.6330 C.3          1 SAM603   0.0000
     7 CG          19.8820    -0.3470    13.0880 C.3          1 SAM603   0.0000
     8 SD          19.0060    -1.7260    13.8800 S.3          1 SAM603   1.0000
     9 CE          17.4790    -0.8690    14.3590 C.3          1 SAM603   0.0000
    10 C5'         19.8070    -1.9440    15.4880 C.3          1 SAM603   0.0000
    11 C4'         21.0230    -2.8480    15.3590 C.3          1 SAM603   0.0000
    12 O4'         22.0070    -2.0810    14.6900 O.3          1 SAM603   0.0000
    13 C3'         21.6490    -3.2870    16.6890 C.3          1 SAM603   0.0000
    14 O3'         21.2360    -4.5980    17.0290 O.3          1 SAM603   0.0000
    15 C2'         23.1350    -3.2610    16.4220 C.3          1 SAM603   0.0000
    16 O2'         23.5000    -4.4800    15.8000 O.3          1 SAM603   0.0000
    17 C1'         23.2560    -2.1730    15.3790 C.3          1 SAM603   0.0000
    18 N9          23.5710    -0.8660    16.0120 N.pl3        1 SAM603   0.0000
    19 C8          22.7070     0.2000    16.1680 C.2          1 SAM603   0.0000
    20 N7          23.3770     1.1890    16.7990 N.2          1 SAM603   0.0000
    21 C5          24.6590     0.7730    17.0510 C.ar         1 SAM603   0.0000
    22 C6          25.7790     1.3760    17.6600 C.ar         1 SAM603   0.0000
    23 N6          25.7040     2.6130    18.1520 N.pl3        1 SAM603   0.0000
    24 N1          26.9680     0.6950    17.7810 N.ar         1 SAM603   0.0000
    25 C2          27.0610    -0.5810    17.2850 C.ar         1 SAM603   0.0000
    26 N3          25.9540    -1.1550    16.6810 N.ar         1 SAM603   0.0000
    27 C4          24.7790    -0.5080    16.5570 C.ar         1 SAM603   0.0000
    28 H1          22.5479    -0.2304    12.2166 H            1 SAM603   0.0000
    29 H2          23.2967    -1.6667    12.0092 H            1 SAM603   0.0000
    30 HA          21.2643    -2.3797    12.1646 H            1 SAM603   0.0000
    31 HB1         19.3693    -1.0642    11.2157 H            1 SAM603   0.0000
    32 HB2         20.4320     0.1744    11.1623 H            1 SAM603   0.0000
    33 HG1         19.3094     0.4719    13.1269 H            1 SAM603   0.0000
    34 HG2         20.7386    -0.1783    13.5755 H            1 SAM603   0.0000
    35 HE1         16.8681    -1.5106    14.8228 H            1 SAM603   0.0000
    36 HE2         17.7001    -0.1139    14.9762 H            1 SAM603   0.0000
    37 HE3         17.0276    -0.5104    13.5419 H            1 SAM603   0.0000
    38 H5'1        19.1568    -2.3560    16.1264 H            1 SAM603   0.0000
    39 H5'2        20.0956    -1.0519    15.8356 H            1 SAM603   0.0000
    40 H4'         20.7907    -3.6523    14.8121 H            1 SAM603   0.0000
    41 H3'         21.4120    -2.6443    17.4175 H            1 SAM603   0.0000
    42 H15         21.6543    -4.8646    17.8973 H            1 SAM603   0.0000
    43 H2'         23.6721    -3.0703    17.2437 H            1 SAM603   0.0000
    44 H17         23.7447    -5.1511    16.4998 H            1 SAM603   0.0000
    45 H1'         23.9782    -2.4120    14.7299 H            1 SAM603   0.0000
    46 H19         21.7539     0.2339    15.8671 H            1 SAM603   0.0000
    47 H20         26.5052     3.0297    18.5815 H            1 SAM603   0.0000
    48 H21         24.8466     3.1240    18.0915 H            1 SAM603   0.0000
    49 H22         27.9181    -1.0909    17.3586 H            1 SAM603   0.0000
    50 H23         22.9724    -0.7211    10.7180 H            1 SAM603   0.0000
@<TRIPOS>BOND
     1    1    2       1
     2    2    3       1
     3    2    6       1
     4    3    4      ar
     5    3    5      ar
     6    6    7       1
     7    7    8       1
     8    8    9       1
     9    8   10       1
    10   10   11       1
    11   11   12       1
    12   11   13       1
    13   12   17       1
    14   13   14       1
    15   13   15       1
    16   15   16       1
    17   15   17       1
    18   17   18       1
    19   18   19       1
    20   18   27       1
    21   19   20       2
    22   20   21       1
    23   21   22      ar
    24   21   27      ar
    25   22   23       1
    26   22   24      ar
    27   24   25      ar
    28   25   26      ar
    29   26   27      ar
    30    1   28       1
    31    1   29       1
    32    2   30       1
    33    1   50       1
    34    6   31       1
    35    6   32       1
    36    7   33       1
    37    7   34       1
    38    9   35       1
    39    9   36       1
    40    9   37       1
    41   10   38       1
    42   10   39       1
    43   11   40       1
    44   13   41       1
    45   14   42       1
    46   15   43       1
    47   16   44       1
    48   17   45       1
    49   19   46       1
    50   23   47       1
    51   23   48       1
    52   25   49       1
@<TRIPOS>SUBSTRUCTURE
     1 SAM603      1 GROUP             4 A     SAM     0 **** SAM A 603
