@<TRIPOS>MOLECULE
4awt_FMN_1_ligand
   50    52     1     0     0
SMALL
NO_CHARGES


@<TRIPOS>ATOM
     1 N1           0.8040    -2.2520    -2.8050 N.2          1 FMN500   0.0000
     2 C2           1.5560    -1.1980    -2.5110 C.2          1 FMN500   0.0000
     3 O2           2.3520    -0.6930    -3.3470 O.2          1 FMN500   0.0000
     4 N3           1.4830    -0.6190    -1.2520 N.pl3        1 FMN500   0.0000
     5 C4           0.6470    -1.0900    -0.2530 C.2          1 FMN500   0.0000
     6 O4           0.7210    -0.5710     0.8920 O.2          1 FMN500   0.0000
     7 C4A         -0.2140    -2.1240    -0.6140 C.2          1 FMN500   0.0000
     8 N5          -1.1580    -2.6030     0.2930 N.2          1 FMN500   0.0000
     9 C5A         -1.6940    -3.8970     0.0520 C.ar         1 FMN500   0.0000
    10 C6          -2.4160    -4.5300     1.0330 C.ar         1 FMN500   0.0000
    11 C7          -2.9450    -5.8300     0.8490 C.ar         1 FMN500   0.0000
    12 C7M         -3.6190    -6.5070     2.0180 C.3          1 FMN500   0.0000
    13 C8          -2.7670    -6.4320    -0.3600 C.ar         1 FMN500   0.0000
    14 C8M         -3.2710    -7.8350    -0.6320 C.3          1 FMN500   0.0000
    15 C9          -2.0390    -5.7860    -1.3800 C.ar         1 FMN500   0.0000
    16 C9A         -1.4860    -4.5190    -1.1840 C.ar         1 FMN500   0.0000
    17 N10         -0.7050    -3.8950    -2.1790 N.pl3        1 FMN500   0.0000
    18 C10         -0.0210    -2.7350    -1.8690 C.2          1 FMN500   0.0000
    19 C1'         -0.4530    -4.5970    -3.4410 C.3          1 FMN500   0.0000
    20 C2'          0.5830    -5.7290    -3.3160 C.3          1 FMN500   0.0000
    21 O2'          1.8790    -5.2010    -3.0910 O.3          1 FMN500   0.0000
    22 C3'          0.6770    -6.5730    -4.5720 C.3          1 FMN500   0.0000
    23 O3'          1.1920    -5.8370    -5.6710 O.3          1 FMN500   0.0000
    24 C4'         -0.6380    -7.2500    -4.9990 C.3          1 FMN500   0.0000
    25 O4'         -1.3130    -7.8330    -3.8950 O.3          1 FMN500   0.0000
    26 C5'         -0.4420    -8.2340    -6.1360 C.3          1 FMN500   0.0000
    27 O5'          0.4170    -9.3200    -5.7490 O.3          1 FMN500   0.0000
    28 P           -0.2330   -10.7300    -5.3030 P.3          1 FMN500   0.0000
    29 O1P         -0.9480   -10.4780    -3.9990 O.co2        1 FMN500   0.0000
    30 O2P         -1.1820   -11.1580    -6.4000 O.co2        1 FMN500  -1.0000
    31 O3P          0.9720   -11.6250    -5.1530 O.co2        1 FMN500  -1.0000
    32 H1           2.0600     0.1741    -1.0571 H            1 FMN500   0.0000
    33 H2          -2.5726    -4.0598     1.9016 H            1 FMN500   0.0000
    34 H7M1        -3.9399    -7.4122     1.7393 H            1 FMN500   0.0000
    35 H7M2        -2.9665    -6.6016     2.7699 H            1 FMN500   0.0000
    36 H7M3        -4.3970    -5.9557     2.3192 H            1 FMN500   0.0000
    37 H8M1        -3.0437    -8.0947    -1.5706 H            1 FMN500   0.0000
    38 H8M2        -2.8388    -8.4737     0.0046 H            1 FMN500   0.0000
    39 H8M3        -4.2631    -7.8624    -0.5095 H            1 FMN500   0.0000
    40 H9          -1.9164    -6.2439    -2.2605 H            1 FMN500   0.0000
    41 H1'1        -0.1187    -3.9341    -4.1109 H            1 FMN500   0.0000
    42 H1'2        -1.3145    -4.9901    -3.7623 H            1 FMN500   0.0000
    43 H2'          0.3324    -6.3166    -2.5466 H            1 FMN500   0.0000
    44 H13          2.0356    -5.1097    -2.1076 H            1 FMN500   0.0000
    45 H3'          1.3312    -7.3049    -4.3812 H            1 FMN500   0.0000
    46 H15          0.4376    -5.4073    -6.1672 H            1 FMN500   0.0000
    47 H4'         -1.2326    -6.5254    -5.3474 H            1 FMN500   0.0000
    48 H17         -1.0085    -8.7785    -3.7796 H            1 FMN500   0.0000
    49 H5'1        -0.0319    -7.7559    -6.9127 H            1 FMN500   0.0000
    50 H5'2        -1.3320    -8.6029    -6.4038 H            1 FMN500   0.0000
@<TRIPOS>BOND
     1    1    2       1
     2    1   18       2
     3    2    3       2
     4    2    4       1
     5    4    5       1
     6    5    6       2
     7    5    7       1
     8    7    8       2
     9    7   18       1
    10    8    9       1
    11    9   10      ar
    12    9   16      ar
    13   10   11      ar
    14   11   12       1
    15   11   13      ar
    16   13   14       1
    17   13   15      ar
    18   15   16      ar
    19   16   17       1
    20   17   18       1
    21   17   19       1
    22   19   20       1
    23   20   21       1
    24   20   22       1
    25   22   23       1
    26   22   24       1
    27   24   25       1
    28   24   26       1
    29   26   27       1
    30   27   28       1
    31   28   29      ar
    32   28   30      ar
    33   28   31      ar
    34    4   32       1
    35   10   33       1
    36   12   34       1
    37   12   35       1
    38   12   36       1
    39   14   37       1
    40   14   38       1
    41   14   39       1
    42   15   40       1
    43   19   41       1
    44   19   42       1
    45   20   43       1
    46   21   44       1
    47   22   45       1
    48   23   46       1
    49   24   47       1
    50   25   48       1
    51   26   49       1
    52   26   50       1
@<TRIPOS>SUBSTRUCTURE
     1 FMN500      1 GROUP             4 A     FMN     0 **** FMN A 500
