@<TRIPOS>MOLECULE
3a4t_SFG_1_ligand
   51    53     1     0     0
SMALL
NO_CHARGES


@<TRIPOS>ATOM
     1 N           17.7740   -23.4070   -14.7330 N.4          1 SFG500   1.0000
     2 CA          18.0350   -24.9140   -14.8610 C.3          1 SFG500   0.0000
     3 C           17.3940   -25.6420   -16.0770 C.2          1 SFG500   0.0000
     4 O           16.4290   -25.2260   -16.6970 O.co2        1 SFG500   0.0000
     5 OXT         17.7220   -26.7180   -16.5620 O.co2        1 SFG500  -1.0000
     6 CB          17.5660   -25.5190   -13.5120 C.3          1 SFG500   0.0000
     7 CG          18.1310   -24.8520   -12.2430 C.3          1 SFG500   0.0000
     8 CD          17.9550   -25.7300   -10.9680 C.3          1 SFG500   0.0000
     9 NE          16.4900   -25.7470   -10.5800 N.4          1 SFG500   1.0000
    10 C5'         18.8300   -25.3750    -9.7320 C.3          1 SFG500   0.0000
    11 C4'         20.2650   -24.9300    -9.9810 C.3          1 SFG500   0.0000
    12 O4'         20.6920   -23.7520    -9.2730 O.3          1 SFG500   0.0000
    13 C3'         21.2520   -25.9900    -9.5750 C.3          1 SFG500   0.0000
    14 O3'         21.9410   -26.1580   -10.8180 O.3          1 SFG500   0.0000
    15 C2'         22.1690   -25.3670    -8.5170 C.3          1 SFG500   0.0000
    16 O2'         23.5000   -25.8730    -8.6310 O.3          1 SFG500   0.0000
    17 C1'         22.0910   -23.8880    -8.9120 C.3          1 SFG500   0.0000
    18 N9          22.5490   -22.8350    -7.9260 N.pl3        1 SFG500   0.0000
    19 C8          22.1370   -22.6340    -6.6360 C.2          1 SFG500   0.0000
    20 N7          22.7490   -21.5480    -6.0650 N.2          1 SFG500   0.0000
    21 C5          23.5860   -21.0400    -7.0090 C.ar         1 SFG500   0.0000
    22 C6          24.4840   -19.9410    -7.0150 C.ar         1 SFG500   0.0000
    23 N6          24.6790   -19.1040    -5.9250 N.pl3        1 SFG500   0.0000
    24 N1          25.1770   -19.7400    -8.1780 N.ar         1 SFG500   0.0000
    25 C2          25.0240   -20.5190    -9.2900 C.ar         1 SFG500   0.0000
    26 N3          24.1870   -21.5660    -9.3150 N.ar         1 SFG500   0.0000
    27 C4          23.4520   -21.8510    -8.1870 C.ar         1 SFG500   0.0000
    28 H1          18.2354   -23.0569   -13.9178 H            1 SFG500   0.0000
    29 H2          18.1262   -22.9377   -15.5428 H            1 SFG500   0.0000
    30 HA          19.0248   -25.0436   -14.9206 H            1 SFG500   0.0000
    31 HB1         17.8353   -26.4820   -13.4979 H            1 SFG500   0.0000
    32 HB2         16.5690   -25.4512   -13.4759 H            1 SFG500   0.0000
    33 HG1         17.6563   -23.9835   -12.1005 H            1 SFG500   0.0000
    34 HG2         19.1065   -24.6801   -12.3801 H            1 SFG500   0.0000
    35 HD          18.1934   -26.6655   -11.2289 H            1 SFG500   0.0000
    36 HE1         16.0331   -26.5105   -11.0364 H            1 SFG500   0.0000
    37 HE2         16.4088   -25.8542    -9.5891 H            1 SFG500   0.0000
    38 H5'1        18.8665   -26.1870    -9.1495 H            1 SFG500   0.0000
    39 H5'2        18.3689   -24.6345    -9.2431 H            1 SFG500   0.0000
    40 H4'         20.3737   -24.7615   -10.9607 H            1 SFG500   0.0000
    41 H3'         20.8109   -26.8302    -9.2595 H            1 SFG500   0.0000
    42 H15         22.7168   -25.5282   -10.8569 H            1 SFG500   0.0000
    43 H2'         21.8066   -25.5128    -7.5964 H            1 SFG500   0.0000
    44 H17         24.0248   -25.2932    -9.2542 H            1 SFG500   0.0000
    45 H1'         22.6290   -23.7716    -9.7469 H            1 SFG500   0.0000
    46 H19         21.4689   -23.2108    -6.1659 H            1 SFG500   0.0000
    47 H20         25.3260   -18.3441    -5.9876 H            1 SFG500   0.0000
    48 H21         24.1725   -19.2609    -5.0772 H            1 SFG500   0.0000
    49 H22         25.5526   -20.3015   -10.1105 H            1 SFG500   0.0000
    50 H23         16.7904   -23.2445   -14.6550 H            1 SFG500   0.0000
    51 HE3         16.0614   -24.8875   -10.8585 H            1 SFG500   0.0000
@<TRIPOS>BOND
     1    1    2       1
     2    2    3       1
     3    2    6       1
     4    3    4      ar
     5    3    5      ar
     6    6    7       1
     7    7    8       1
     8    8    9       1
     9    8   10       1
    10   10   11       1
    11   11   12       1
    12   11   13       1
    13   12   17       1
    14   13   14       1
    15   13   15       1
    16   15   16       1
    17   15   17       1
    18   17   18       1
    19   18   19       1
    20   18   27       1
    21   19   20       2
    22   20   21       1
    23   21   22      ar
    24   21   27      ar
    25   22   23       1
    26   22   24      ar
    27   24   25      ar
    28   25   26      ar
    29   26   27      ar
    30    1   28       1
    31    1   29       1
    32    2   30       1
    33    1   50       1
    34    6   31       1
    35    6   32       1
    36    7   33       1
    37    7   34       1
    38    8   35       1
    39    9   36       1
    40    9   37       1
    41   10   38       1
    42   10   39       1
    43   11   40       1
    44   13   41       1
    45   14   42       1
    46   15   43       1
    47   16   44       1
    48   17   45       1
    49   19   46       1
    50   23   47       1
    51   23   48       1
    52   25   49       1
    53    9   51       1
@<TRIPOS>SUBSTRUCTURE
     1 SFG500      1 GROUP             4 A     SFG     0 **** SFG A 500
