@<TRIPOS>MOLECULE
2fr0_NDP_1_ligand
   73    77     1     0     0
SMALL
NO_CHARGES


@<TRIPOS>ATOM
     1 PA         -20.7780    -3.7130   -28.7160 P.3          1 NDP201   0.0000
     2 O1A        -21.1690    -3.9380   -27.3070 O.co2        1 NDP201   0.0000
     3 O2A        -21.4300    -2.5760   -29.5020 O.co2        1 NDP201  -1.0000
     4 O5B        -21.1540    -5.1940   -28.9720 O.3          1 NDP201   0.0000
     5 C5B        -21.1880    -6.1110   -29.9690 C.3          1 NDP201   0.0000
     6 C4B        -22.2560    -7.0850   -29.1600 C.3          1 NDP201   0.0000
     7 O4B        -21.3470    -8.2760   -29.4500 O.3          1 NDP201   0.0000
     8 C3B        -23.4380    -7.9410   -28.5260 C.3          1 NDP201   0.0000
     9 O3B        -24.7580    -7.5190   -28.5460 O.3          1 NDP201   0.0000
    10 C2B        -23.4300    -9.3360   -29.2130 C.3          1 NDP201   0.0000
    11 O2B        -24.2320    -9.4470   -30.3340 O.3          1 NDP201   0.0000
    12 C1B        -21.9400    -9.5600   -29.1830 C.3          1 NDP201   0.0000
    13 N9A        -21.6960   -10.4880   -28.0070 N.pl3        1 NDP201   0.0000
    14 C8A        -21.7870   -10.2450   -26.6400 C.2          1 NDP201   0.0000
    15 N7A        -21.6130   -11.3480   -25.8750 N.2          1 NDP201   0.0000
    16 C5A        -21.4060   -12.3340   -26.7790 C.ar         1 NDP201   0.0000
    17 C6A        -21.1580   -13.7510   -26.6120 C.ar         1 NDP201   0.0000
    18 N6A        -21.1160   -14.3700   -25.4420 N.pl3        1 NDP201   0.0000
    19 N1A        -21.0030   -14.4640   -27.7880 N.ar         1 NDP201   0.0000
    20 C2A        -21.0240   -13.8720   -28.9990 C.ar         1 NDP201   0.0000
    21 N3A        -21.1280   -12.5230   -29.2450 N.ar         1 NDP201   0.0000
    22 C4A        -21.3780   -11.8060   -28.0920 C.ar         1 NDP201   0.0000
    23 O3         -19.1750    -3.3010   -28.5670 O.3          1 NDP201   0.0000
    24 PN         -17.9990    -2.9580   -29.5990 P.3          1 NDP201   0.0000
    25 O1N        -17.4170    -1.6110   -29.2710 O.co2        1 NDP201   0.0000
    26 O2N        -18.6150    -3.1240   -30.9680 O.co2        1 NDP201  -1.0000
    27 O5D        -16.9080    -4.1190   -29.3610 O.3          1 NDP201   0.0000
    28 C5D        -15.7090    -4.2780   -30.1540 C.3          1 NDP201   0.0000
    29 C4D        -14.3960    -3.8230   -29.5110 C.3          1 NDP201   0.0000
    30 O4D        -14.0280    -2.4130   -29.7470 O.3          1 NDP201   0.0000
    31 C3D        -14.1800    -3.9820   -27.9890 C.3          1 NDP201   0.0000
    32 O3D        -14.2450    -5.3010   -27.5070 O.3          1 NDP201   0.0000
    33 C2D        -12.8500    -3.2730   -27.8310 C.3          1 NDP201   0.0000
    34 O2D        -11.7560    -4.1520   -28.1540 O.3          1 NDP201   0.0000
    35 C1D        -13.0210    -2.0380   -28.7820 C.3          1 NDP201   0.0000
    36 N1N        -13.2830    -0.6440   -28.0620 N.ar         1 NDP201   1.0000
    37 C2N        -14.4960     0.0630   -28.1600 C.ar         1 NDP201   0.0000
    38 C3N        -14.6780     1.3140   -27.5050 C.ar         1 NDP201   0.0000
    39 C7N        -15.9370     2.1640   -27.6410 C.2          1 NDP201   0.0000
    40 O7N        -16.0570     3.1890   -26.9670 O.2          1 NDP201   0.0000
    41 N7N        -16.8570     1.6900   -28.4940 N.am         1 NDP201   0.0000
    42 C4N        -13.6360     1.8170   -26.6290 C.ar         1 NDP201   0.0000
    43 C5N        -12.4500     1.0520   -26.4740 C.ar         1 NDP201   0.0000
    44 C6N        -12.3200    -0.1870   -27.0810 C.ar         1 NDP201   0.0000
    45 P2B        -25.8160    -9.8820   -30.2630 P.3          1 NDP201   0.0000
    46 O1X        -26.6730    -8.7260   -29.6750 O.co2        1 NDP201   0.0000
    47 O2X        -26.2120   -10.2050   -31.6470 O.co2        1 NDP201  -1.0000
    48 O3X        -25.8070   -11.1180   -29.3000 O.co2        1 NDP201  -1.0000
    49 H5B1       -20.3037    -6.5462   -30.1383 H            1 NDP201   0.0000
    50 H5B2       -21.5519    -5.7503   -30.8278 H            1 NDP201   0.0000
    51 H4B        -21.8331    -6.9065   -28.2716 H            1 NDP201   0.0000
    52 H3B        -23.1998    -8.0924   -27.5667 H            1 NDP201   0.0000
    53 H5         -25.3144    -8.1879   -29.0390 H            1 NDP201   0.0000
    54 H2B        -23.8130    -9.9708   -28.5419 H            1 NDP201   0.0000
    55 H1B        -21.7435   -10.1109   -29.9941 H            1 NDP201   0.0000
    56 H8A        -21.9647    -9.3382   -26.2576 H            1 NDP201   0.0000
    57 H6A1       -20.9392   -15.3535   -25.4027 H            1 NDP201   0.0000
    58 H6A2       -21.2610   -13.8539   -24.5978 H            1 NDP201   0.0000
    59 H2A        -20.9575   -14.4723   -29.7960 H            1 NDP201   0.0000
    60 H5D1       -15.8313    -3.7543   -30.9971 H            1 NDP201   0.0000
    61 H5D2       -15.6180    -5.2490   -30.3749 H            1 NDP201   0.0000
    62 H4D        -13.6782    -4.3672   -29.9453 H            1 NDP201   0.0000
    63 H3D        -14.8781    -3.4433   -27.5174 H            1 NDP201   0.0000
    64 H16        -14.4268    -5.9250   -28.2670 H            1 NDP201   0.0000
    65 H2D        -12.7532    -2.9550   -26.8879 H            1 NDP201   0.0000
    66 H18        -10.8911    -3.6626   -28.0425 H            1 NDP201   0.0000
    67 H1D        -12.1624    -1.9433   -29.2859 H            1 NDP201   0.0000
    68 H2N        -15.2448    -0.3209   -28.7003 H            1 NDP201   0.0000
    69 H7N1       -17.7104     2.1909   -28.6380 H            1 NDP201   0.0000
    70 H7N2       -16.6895     0.8357   -28.9860 H            1 NDP201   0.0000
    71 H4N        -13.7509     2.6843   -26.1447 H            1 NDP201   0.0000
    72 H5N        -11.6992     1.4117   -25.9200 H            1 NDP201   0.0000
    73 H6N        -11.5488    -0.7753   -26.8378 H            1 NDP201   0.0000
@<TRIPOS>BOND
     1    1    2      ar
     2    1    3      ar
     3    1    4       1
     4    1   23       1
     5    4    5       1
     6    5    6       1
     7    6    7       1
     8    6    8       1
     9    7   12       1
    10    8    9       1
    11    8   10       1
    12   10   11       1
    13   10   12       1
    14   11   45       1
    15   12   13       1
    16   13   14       1
    17   13   22       1
    18   14   15       2
    19   15   16       1
    20   16   17      ar
    21   16   22      ar
    22   17   18       1
    23   17   19      ar
    24   19   20      ar
    25   20   21      ar
    26   21   22      ar
    27   23   24       1
    28   24   25      ar
    29   24   26      ar
    30   24   27       1
    31   27   28       1
    32   28   29       1
    33   29   30       1
    34   29   31       1
    35   30   35       1
    36   31   32       1
    37   31   33       1
    38   33   34       1
    39   33   35       1
    40   35   36       1
    41   36   37      ar
    42   36   44      ar
    43   37   38      ar
    44   38   39       1
    45   38   42      ar
    46   39   40       2
    47   39   41      am
    48   42   43      ar
    49   43   44      ar
    50   45   46      ar
    51   45   47      ar
    52   45   48      ar
    53   43   72       1
    54    5   49       1
    55    5   50       1
    56    6   51       1
    57    8   52       1
    58    9   53       1
    59   10   54       1
    60   12   55       1
    61   14   56       1
    62   18   57       1
    63   18   58       1
    64   20   59       1
    65   44   73       1
    66   28   60       1
    67   28   61       1
    68   29   62       1
    69   31   63       1
    70   32   64       1
    71   33   65       1
    72   34   66       1
    73   35   67       1
    74   37   68       1
    75   41   69       1
    76   41   70       1
    77   42   71       1
@<TRIPOS>SUBSTRUCTURE
     1 NDP201      1 GROUP             4 A     NDP     0 **** NDP A 201
