@<TRIPOS>MOLECULE
3o7w_SAM_1_ligand
   50    52     1     0     0
SMALL
NO_CHARGES


@<TRIPOS>ATOM
     1 N           26.2390    -4.0220    -1.0480 N.4          1 SAM801   1.0000
     2 CA          26.1280    -5.0860     0.0340 C.3          1 SAM801   0.0000
     3 C           25.7930    -4.4350     1.3760 C.2          1 SAM801   0.0000
     4 O           26.1480    -3.2560     1.5930 O.co2        1 SAM801   0.0000
     5 OXT         25.1860    -5.0860     2.2700 O.co2        1 SAM801  -1.0000
     6 CB          27.3990    -5.9400     0.2110 C.3          1 SAM801   0.0000
     7 CG          28.6740    -5.1370     0.5520 C.3          1 SAM801   0.0000
     8 SD          30.1330    -6.2410     0.6840 S.3          1 SAM801   1.0000
     9 CE          31.3200    -5.1550     1.5370 C.3          1 SAM801   0.0000
    10 C5'         30.8530    -6.0300    -0.9610 C.3          1 SAM801   0.0000
    11 C4'         30.3160    -7.0220    -1.9620 C.3          1 SAM801   0.0000
    12 O4'         30.9640    -6.6370    -3.1450 O.3          1 SAM801   0.0000
    13 C3'         30.6600    -8.4900    -1.6950 C.3          1 SAM801   0.0000
    14 O3'         29.4830    -9.2930    -1.7860 O.3          1 SAM801   0.0000
    15 C2'         31.6870    -8.7850    -2.7870 C.3          1 SAM801   0.0000
    16 O2'         31.6540   -10.1200    -3.2510 O.3          1 SAM801   0.0000
    17 C1'         31.2870    -7.7910    -3.8650 C.3          1 SAM801   0.0000
    18 N9          32.3970    -7.5120    -4.7710 N.pl3        1 SAM801   0.0000
    19 C8          33.6130    -6.9240    -4.4730 C.2          1 SAM801   0.0000
    20 N7          34.3190    -6.8470    -5.6420 N.2          1 SAM801   0.0000
    21 C5          33.6020    -7.4310    -6.6290 C.ar         1 SAM801   0.0000
    22 C6          33.8840    -7.7140    -7.9640 C.ar         1 SAM801   0.0000
    23 N6          35.0400    -7.3230    -8.5090 N.pl3        1 SAM801   0.0000
    24 N1          32.9120    -8.2900    -8.7400 N.ar         1 SAM801   0.0000
    25 C2          31.7170    -8.6810    -8.2020 C.ar         1 SAM801   0.0000
    26 N3          31.4470    -8.4120    -6.8750 N.ar         1 SAM801   0.0000
    27 C4          32.3800    -7.8250    -6.1020 C.ar         1 SAM801   0.0000
    28 H1          26.4581    -4.4565    -1.9216 H            1 SAM801   0.0000
    29 H2          25.3693    -3.5349    -1.1269 H            1 SAM801   0.0000
    30 HA          25.3755    -5.6978    -0.2096 H            1 SAM801   0.0000
    31 HB1         27.5621    -6.4362    -0.6418 H            1 SAM801   0.0000
    32 HB2         27.2351    -6.5930     0.9504 H            1 SAM801   0.0000
    33 HG1         28.5403    -4.6665     1.4242 H            1 SAM801   0.0000
    34 HG2         28.8382    -4.4632    -0.1684 H            1 SAM801   0.0000
    35 HE1         32.1805    -5.6453     1.6753 H            1 SAM801   0.0000
    36 HE2         31.4860    -4.3407     0.9808 H            1 SAM801   0.0000
    37 HE3         30.9453    -4.8827     2.4233 H            1 SAM801   0.0000
    38 H5'1        31.8439    -6.1472    -0.8941 H            1 SAM801   0.0000
    39 H5'2        30.6477    -5.1062    -1.2841 H            1 SAM801   0.0000
    40 H4'         29.3268    -6.9121    -2.0595 H            1 SAM801   0.0000
    41 H3'         31.0773    -8.5888    -0.7916 H            1 SAM801   0.0000
    42 H15         29.3680    -9.6104    -2.7273 H            1 SAM801   0.0000
    43 H2'         32.6043    -8.5678    -2.4532 H            1 SAM801   0.0000
    44 H17         31.0167   -10.1905    -4.0184 H            1 SAM801   0.0000
    45 H1'         30.4924    -8.1232    -4.3732 H            1 SAM801   0.0000
    46 H19         33.9184    -6.6137    -3.5727 H            1 SAM801   0.0000
    47 H20         35.2359    -7.5294    -9.4676 H            1 SAM801   0.0000
    48 H21         35.7090    -6.8240    -7.9581 H            1 SAM801   0.0000
    49 H22         31.0433    -9.1585    -8.7660 H            1 SAM801   0.0000
    50 H23         26.9626    -3.3753    -0.8066 H            1 SAM801   0.0000
@<TRIPOS>BOND
     1    1    2       1
     2    2    3       1
     3    2    6       1
     4    3    4      ar
     5    3    5      ar
     6    6    7       1
     7    7    8       1
     8    8    9       1
     9    8   10       1
    10   10   11       1
    11   11   12       1
    12   11   13       1
    13   12   17       1
    14   13   14       1
    15   13   15       1
    16   15   16       1
    17   15   17       1
    18   17   18       1
    19   18   19       1
    20   18   27       1
    21   19   20       2
    22   20   21       1
    23   21   22      ar
    24   21   27      ar
    25   22   23       1
    26   22   24      ar
    27   24   25      ar
    28   25   26      ar
    29   26   27      ar
    30    1   28       1
    31    1   29       1
    32    2   30       1
    33    1   50       1
    34    6   31       1
    35    6   32       1
    36    7   33       1
    37    7   34       1
    38    9   35       1
    39    9   36       1
    40    9   37       1
    41   10   38       1
    42   10   39       1
    43   11   40       1
    44   13   41       1
    45   14   42       1
    46   15   43       1
    47   16   44       1
    48   17   45       1
    49   19   46       1
    50   23   47       1
    51   23   48       1
    52   25   49       1
@<TRIPOS>SUBSTRUCTURE
     1 SAM801      1 GROUP             4 A     SAM     0 **** SAM A 801
