@<TRIPOS>MOLECULE
4xxv_NAD_1_ligand
   70    74     1     0     0
SMALL
NO_CHARGES


@<TRIPOS>ATOM
     1 PA         -25.9680    -2.1760    12.2350 P.3          1 NAD400   0.0000
     2 O1A        -26.5760    -2.4350    13.5720 O.co2        1 NAD400   0.0000
     3 O2A        -26.7880    -1.9350    10.9960 O.co2        1 NAD400  -1.0000
     4 O5B        -25.1350    -3.5830    11.8500 O.3          1 NAD400   0.0000
     5 C5B        -24.1730    -3.9560    12.8010 C.3          1 NAD400   0.0000
     6 C4B        -23.8290    -5.4500    12.5110 C.3          1 NAD400   0.0000
     7 O4B        -24.9210    -6.2880    12.9350 O.3          1 NAD400   0.0000
     8 C3B        -23.6480    -5.6370    10.9700 C.3          1 NAD400   0.0000
     9 O3B        -22.6700    -6.6480    10.8460 O.3          1 NAD400   0.0000
    10 C2B        -25.0460    -6.1470    10.5180 C.3          1 NAD400   0.0000
    11 O2B        -24.9820    -6.9730     9.3960 O.3          1 NAD400   0.0000
    12 C1B        -25.4780    -6.9640    11.7650 C.3          1 NAD400   0.0000
    13 N9A        -26.9400    -6.8750    11.9270 N.pl3        1 NAD400   0.0000
    14 C8A        -27.7410    -5.7730    12.3350 C.2          1 NAD400   0.0000
    15 N7A        -29.0270    -6.0630    12.3710 N.2          1 NAD400   0.0000
    16 C5A        -29.1030    -7.4160    11.9910 C.ar         1 NAD400   0.0000
    17 C6A        -30.1940    -8.2980    11.8330 C.ar         1 NAD400   0.0000
    18 N6A        -31.4900    -7.8840    12.0850 N.pl3        1 NAD400   0.0000
    19 N1A        -29.9570    -9.5830    11.4210 N.ar         1 NAD400   0.0000
    20 C2A        -28.6700    -9.9160    11.2130 C.ar         1 NAD400   0.0000
    21 N3A        -27.5470    -9.1880    11.3020 N.ar         1 NAD400   0.0000
    22 C4A        -27.8090    -7.9310    11.7100 C.ar         1 NAD400   0.0000
    23 O3         -24.8660    -1.0300    12.6090 O.3          1 NAD400   0.0000
    24 PN         -23.8130    -0.3620    11.5800 P.3          1 NAD400   0.0000
    25 O1N        -23.2490    -1.2120    10.4690 O.co2        1 NAD400   0.0000
    26 O2N        -22.9490     0.3720    12.5470 O.co2        1 NAD400  -1.0000
    27 O5D        -24.6370     0.9210    10.8670 O.3          1 NAD400   0.0000
    28 C5D        -25.3220     0.5480     9.7320 C.3          1 NAD400   0.0000
    29 C4D        -26.2820     1.7150     9.3590 C.3          1 NAD400   0.0000
    30 O4D        -27.3760     1.7820    10.3280 O.3          1 NAD400   0.0000
    31 C3D        -25.5430     3.0740     9.4380 C.3          1 NAD400   0.0000
    32 O3D        -26.0490     3.8600     8.3640 O.3          1 NAD400   0.0000
    33 C2D        -26.0020     3.6500    10.8190 C.3          1 NAD400   0.0000
    34 O2D        -26.0370     5.0660    10.8750 O.3          1 NAD400   0.0000
    35 C1D        -27.4730     3.1660    10.8020 C.3          1 NAD400   0.0000
    36 N1N        -28.0310     2.9230    12.1570 N.ar         1 NAD400   1.0000
    37 C2N        -29.3410     3.1970    12.3380 C.ar         1 NAD400   0.0000
    38 C3N        -29.9360     2.9700    13.5530 C.ar         1 NAD400   0.0000
    39 C7N        -31.4140     3.2860    13.6310 C.2          1 NAD400   0.0000
    40 O7N        -32.0920     3.3230    12.6190 O.2          1 NAD400   0.0000
    41 N7N        -31.9800     3.5130    14.8890 N.am         1 NAD400   0.0000
    42 C4N        -29.1950     2.4500    14.5990 C.ar         1 NAD400   0.0000
    43 C5N        -27.8510     2.1960    14.4120 C.ar         1 NAD400   0.0000
    44 C6N        -27.2510     2.4090    13.1600 C.ar         1 NAD400   0.0000
    45 H5B1       -24.5432    -3.8587    13.7249 H            1 NAD400   0.0000
    46 H5B2       -23.3554    -3.3878    12.7080 H            1 NAD400   0.0000
    47 H4B        -22.9903    -5.7092    12.9899 H            1 NAD400   0.0000
    48 H3B        -23.3828    -4.7895    10.5102 H            1 NAD400   0.0000
    49 H5         -22.4967    -6.8271     9.8776 H            1 NAD400   0.0000
    50 H2B        -25.6700    -5.3815    10.3608 H            1 NAD400   0.0000
    51 H7         -24.5793    -6.4678     8.6327 H            1 NAD400   0.0000
    52 H1B        -25.1709    -7.9139    11.7075 H            1 NAD400   0.0000
    53 H8A        -27.3691    -4.8748    12.5694 H            1 NAD400   0.0000
    54 H6A1       -32.2506    -8.5225    11.9677 H            1 NAD400   0.0000
    55 H6A2       -31.6660    -6.9463    12.3844 H            1 NAD400   0.0000
    56 H2A        -28.5262   -10.8691    10.9465 H            1 NAD400   0.0000
    57 H5D1       -25.8484    -0.2836     9.9089 H            1 NAD400   0.0000
    58 H5D2       -24.6790     0.3827     8.9842 H            1 NAD400   0.0000
    59 H4D        -26.6476     1.5769     8.4385 H            1 NAD400   0.0000
    60 H3D        -24.5502     2.9649     9.3881 H            1 NAD400   0.0000
    61 H17        -26.4714     4.6899     8.7285 H            1 NAD400   0.0000
    62 H2D        -25.4861     3.2568    11.5800 H            1 NAD400   0.0000
    63 H19        -26.9412     5.3884    10.5948 H            1 NAD400   0.0000
    64 H1D        -28.0654     3.7345    10.2311 H            1 NAD400   0.0000
    65 H2N        -29.8804     3.5675    11.5819 H            1 NAD400   0.0000
    66 H7N1       -32.9543     3.7237    14.9683 H            1 NAD400   0.0000
    67 H7N2       -31.4105     3.4647    15.7096 H            1 NAD400   0.0000
    68 H4N        -29.6278     2.2603    15.4803 H            1 NAD400   0.0000
    69 H5N        -27.2998     1.8574    15.1746 H            1 NAD400   0.0000
    70 H6N        -26.2869     2.1928    13.0056 H            1 NAD400   0.0000
@<TRIPOS>BOND
     1    1    2      ar
     2    1    3      ar
     3    1    4       1
     4    1   23       1
     5    4    5       1
     6    5    6       1
     7    6    7       1
     8    6    8       1
     9    7   12       1
    10    8    9       1
    11    8   10       1
    12   10   11       1
    13   10   12       1
    14   12   13       1
    15   13   14       1
    16   13   22       1
    17   14   15       2
    18   15   16       1
    19   16   17      ar
    20   16   22      ar
    21   17   18       1
    22   17   19      ar
    23   19   20      ar
    24   20   21      ar
    25   21   22      ar
    26   23   24       1
    27   24   25      ar
    28   24   26      ar
    29   24   27       1
    30   27   28       1
    31   28   29       1
    32   29   30       1
    33   29   31       1
    34   30   35       1
    35   31   32       1
    36   31   33       1
    37   33   34       1
    38   33   35       1
    39   35   36       1
    40   36   37      ar
    41   36   44      ar
    42   37   38      ar
    43   38   39       1
    44   38   42      ar
    45   39   40       2
    46   39   41      am
    47   42   43      ar
    48   43   44      ar
    49   44   70       1
    50    5   45       1
    51    5   46       1
    52    6   47       1
    53    8   48       1
    54    9   49       1
    55   10   50       1
    56   11   51       1
    57   12   52       1
    58   14   53       1
    59   18   54       1
    60   18   55       1
    61   20   56       1
    62   43   69       1
    63   28   57       1
    64   28   58       1
    65   29   59       1
    66   31   60       1
    67   32   61       1
    68   33   62       1
    69   34   63       1
    70   35   64       1
    71   37   65       1
    72   41   66       1
    73   41   67       1
    74   42   68       1
@<TRIPOS>SUBSTRUCTURE
     1 NAD400      1 GROUP             4 B     NAD     0 **** NAD B 400
