@<TRIPOS>MOLECULE
./coach420/2hxm/ligand.pdb
 25 26 0 0 0
SMALL
GASTEIGER

@<TRIPOS>ATOM
      1  C1         6.0650   -0.8490   -3.0280 C.2   401  302401      0.0842
      2  C3         6.8020    1.0850   -4.1360 C.2   401  302401      0.3499
      3  C5         5.9380   -0.7000   -5.4020 C.2   401  302401      0.2551
      4  C6         5.7310   -1.4370   -4.2440 C.3   401  302401      0.1321
      5  N2         6.6000    0.3950   -2.9940 N.am  401  302401     -0.1628
      6  N4         6.4710    0.5320   -5.3170 N.am  401  302401     -0.1256
      7  O37        8.8620    8.5650    3.3050 O.co2 401  302401     -0.2406
      8  C35        9.4790    7.7800    2.5630 C.2   401  302401      0.3878
      9  O36       10.3140    8.1940    1.7210 O.co2 401  302401     -0.2406
     10  C28        9.2320    6.3030    2.6630 C.ar  401  302401      0.0798
     11  C27        9.5340    5.5190    1.5570 C.ar  401  302401      0.0063
     12  C26        9.3320    4.1490    1.6150 C.ar  401  302401     -0.0026
     13  C29        8.7200    5.7090    3.8260 C.ar  401  302401      0.0063
     14  C30        8.5090    4.3210    3.8760 C.ar  401  302401     -0.0026
     15  C24        8.8220    3.5410    2.7580 C.ar  401  302401     -0.0022
     16  C20        8.6970    2.2620    2.6190 C.3   401  302401      0.1477
     17  N19        8.6400    1.1550    2.1300 N.3   401  302401     -0.0787
     18  O16        8.4600   -0.0520    2.7110 O.3   401  302401     -0.2618
     19  C13        8.0690   -1.1480    1.8750 C.3   401  302401      0.2184
     20  C12        6.5520   -1.1190    1.6880 C.3   401  302401      0.2726
     21  O11        6.1440   -1.7410    0.4640 O.2   401  302401     -0.3744
     22  N10        6.2950   -1.0650   -0.6980 N.2   401  302401     -0.0803
     23  C9         5.8720   -1.5810   -1.7650 C.2   401  302401      0.1527
     24  O7         5.6610   -1.1590   -6.5300 O.2   401  302401     -0.2724
     25  O8         7.2970    2.2300   -4.1210 O.2   401  302401     -0.2484
@<TRIPOS>BOND
     1     1     4    1
     2     1     5    2
     3     1    23    1
     4     2     6   am
     5     2    25    2
     6     2     5    1
     7     3    24    2
     8     3     6   am
     9     3     4    1
    10     7     8   ar
    11     8     9   ar
    12     8    10    1
    13    10    11   ar
    14    10    13   ar
    15    11    12   ar
    16    12    15   ar
    17    13    14   ar
    18    14    15   ar
    19    15    16    1
    20    16    17    1
    21    17    18    1
    22    18    19    1
    23    19    20    1
    24    20    21    1
    25    21    22    1
    26    22    23    2
