@<TRIPOS>MOLECULE
3w3d_ATP_1_ligand
   43    45     1     0     0
SMALL
NO_CHARGES


@<TRIPOS>ATOM
     1 PG         -13.5220    14.9150    39.2900 P.3          1 ATP401   0.0000
     2 O1G        -12.7970    13.9080    38.4930 O.co2        1 ATP401   0.0000
     3 O2G        -14.9500    14.6460    39.5120 O.co2        1 ATP401  -1.0000
     4 O3G        -12.8310    15.3340    40.5000 O.co2        1 ATP401  -1.0000
     5 PB         -14.8210    17.1430    37.8300 P.3          1 ATP401   0.0000
     6 O1B        -14.1410    18.4080    37.4410 O.co2        1 ATP401   0.0000
     7 O2B        -15.8850    17.1560    38.8680 O.co2        1 ATP401  -1.0000
     8 O3B        -13.5380    16.2810    38.3830 O.3          1 ATP401   0.0000
     9 PA         -16.7370    16.5430    35.8250 P.3          1 ATP401   0.0000
    10 O1A        -17.2610    17.9130    35.8640 O.co2        1 ATP401   0.0000
    11 O2A        -17.6330    15.4140    36.2370 O.co2        1 ATP401  -1.0000
    12 O3A        -15.3120    16.3810    36.5260 O.3          1 ATP401   0.0000
    13 O5'        -16.3760    16.2280    34.3080 O.3          1 ATP401   0.0000
    14 C5'        -15.3420    16.8920    33.5840 C.3          1 ATP401   0.0000
    15 C4'        -14.8740    15.9200    32.5450 C.3          1 ATP401   0.0000
    16 O4'        -16.0150    15.4600    31.7710 O.3          1 ATP401   0.0000
    17 C3'        -13.8840    16.5700    31.6330 C.3          1 ATP401   0.0000
    18 O3'        -12.8600    15.6320    31.2750 O.3          1 ATP401   0.0000
    19 C2'        -14.8010    16.9020    30.4840 C.3          1 ATP401   0.0000
    20 O2'        -14.0280    16.9650    29.3350 O.3          1 ATP401   0.0000
    21 C1'        -15.6530    15.7040    30.4250 C.3          1 ATP401   0.0000
    22 N9         -16.7910    15.8740    29.5420 N.pl3        1 ATP401   0.0000
    23 C8         -17.8390    16.7140    29.6710 C.2          1 ATP401   0.0000
    24 N7         -18.8100    16.4490    28.8560 N.2          1 ATP401   0.0000
    25 C5         -18.3310    15.3670    28.1050 C.ar         1 ATP401   0.0000
    26 C6         -18.8470    14.6560    27.0190 C.ar         1 ATP401   0.0000
    27 N6         -19.9970    15.0250    26.4810 N.pl3        1 ATP401   0.0000
    28 N1         -18.2570    13.4910    26.6740 N.ar         1 ATP401   0.0000
    29 C2         -17.1260    13.1670    27.2620 C.ar         1 ATP401   0.0000
    30 N3         -16.4490    13.8370    28.1760 N.ar         1 ATP401   0.0000
    31 C4         -17.1380    14.9390    28.5840 C.ar         1 ATP401   0.0000
    32 H5'1       -14.5897    17.1344    34.1966 H            1 ATP401   0.0000
    33 H5'2       -15.6983    17.7195    33.1500 H            1 ATP401   0.0000
    34 H4'        -14.4437    15.1376    32.9952 H            1 ATP401   0.0000
    35 H3'        -13.4966    17.3960    32.0425 H            1 ATP401   0.0000
    36 H5         -12.1129    15.6851    31.9376 H            1 ATP401   0.0000
    37 H2'        -15.3254    17.7390    30.6405 H            1 ATP401   0.0000
    38 H7         -14.4348    17.6168    28.6949 H            1 ATP401   0.0000
    39 H1'        -15.1038    14.9357    30.0962 H            1 ATP401   0.0000
    40 H9         -17.8635    17.4658    30.3299 H            1 ATP401   0.0000
    41 H10        -20.3704    14.5191    25.7034 H            1 ATP401   0.0000
    42 H11        -20.4934    15.8100    26.8517 H            1 ATP401   0.0000
    43 H12        -16.7250    12.2959    26.9785 H            1 ATP401   0.0000
@<TRIPOS>BOND
     1    1    2      ar
     2    1    3      ar
     3    1    4      ar
     4    1    8       1
     5    5    6      ar
     6    5    7      ar
     7    5    8       1
     8    5   12       1
     9    9   10      ar
    10    9   11      ar
    11    9   12       1
    12    9   13       1
    13   13   14       1
    14   14   15       1
    15   15   16       1
    16   15   17       1
    17   16   21       1
    18   17   18       1
    19   17   19       1
    20   19   20       1
    21   19   21       1
    22   21   22       1
    23   22   23       1
    24   22   31       1
    25   23   24       2
    26   24   25       1
    27   25   26      ar
    28   25   31      ar
    29   26   27       1
    30   26   28      ar
    31   28   29      ar
    32   29   30      ar
    33   30   31      ar
    34   29   43       1
    35   27   42       1
    36   27   41       1
    37   23   40       1
    38   14   32       1
    39   14   33       1
    40   15   34       1
    41   17   35       1
    42   18   36       1
    43   19   37       1
    44   20   38       1
    45   21   39       1
@<TRIPOS>SUBSTRUCTURE
     1 ATP401      1 GROUP             4 A     ATP     0 **** ATP A 401
