@<TRIPOS>MOLECULE
1x14_NAD_1_ligand
   71    75     1     0     0
SMALL
NO_CHARGES


@<TRIPOS>ATOM
     1 PA         -22.1910    13.8180    32.8620 P.3          1 NAD1395   0.0000
     2 O1A        -20.9470    14.2920    32.2690 O.co2        1 NAD1395   0.0000
     3 O2A        -22.2020    13.8740    34.3960 O.co2        1 NAD1395  -1.0000
     4 O5B        -22.2140    12.2290    32.5490 O.3          1 NAD1395   0.0000
     5 C5B        -22.4060    11.7450    31.2450 C.3          1 NAD1395   0.0000
     6 C4B        -23.5990    10.7820    31.2090 C.3          1 NAD1395   0.0000
     7 O4B        -23.3140     9.5970    31.9360 O.3          1 NAD1395   0.0000
     8 C3B        -24.9230    11.3590    31.7560 C.3          1 NAD1395   0.0000
     9 O3B        -25.8730    11.5440    30.7210 O.3          1 NAD1395   0.0000
    10 C2B        -25.3360    10.3370    32.8140 C.3          1 NAD1395   0.0000
    11 O2B        -26.7140    10.0870    32.9780 O.3          1 NAD1395   0.0000
    12 C1B        -24.6070     9.1360    32.2890 C.3          1 NAD1395   0.0000
    13 N9A        -24.4920     8.0620    33.2520 N.pl3        1 NAD1395   0.0000
    14 C8A        -24.2320     8.1180    34.6000 C.2          1 NAD1395   0.0000
    15 N7A        -24.2110     6.8320    35.0480 N.2          1 NAD1395   0.0000
    16 C5A        -24.4690     5.9840    34.0120 C.ar         1 NAD1395   0.0000
    17 C6A        -24.5980     4.5980    33.9130 C.ar         1 NAD1395   0.0000
    18 N6A        -24.4240     3.8460    34.9840 N.pl3        1 NAD1395   0.0000
    19 N1A        -24.8500     4.0100    32.6930 N.ar         1 NAD1395   1.0000
    20 C2A        -25.0470     4.8190    31.5650 C.ar         1 NAD1395   0.0000
    21 N3A        -24.9660     6.1920    31.6680 N.ar         1 NAD1395   0.0000
    22 C4A        -24.6560     6.7610    32.8680 C.ar         1 NAD1395   0.0000
    23 O3         -23.5620    14.4790    32.2390 O.3          1 NAD1395   0.0000
    24 PN         -23.8670    15.6850    31.1780 P.3          1 NAD1395   0.0000
    25 O1N        -25.2710    15.5400    30.6610 O.co2        1 NAD1395   0.0000
    26 O2N        -22.8050    15.6840    30.1620 O.co2        1 NAD1395  -1.0000
    27 O5D        -23.9320    17.0900    32.0290 O.3          1 NAD1395   0.0000
    28 C5D        -24.1680    17.1690    33.4490 C.3          1 NAD1395   0.0000
    29 C4D        -25.1610    18.2630    33.9120 C.3          1 NAD1395   0.0000
    30 O4D        -25.0700    19.4540    33.1180 O.3          1 NAD1395   0.0000
    31 C3D        -26.6300    17.8160    33.8640 C.3          1 NAD1395   0.0000
    32 O3D        -27.3560    18.2090    35.0150 O.3          1 NAD1395   0.0000
    33 C2D        -27.1850    18.5290    32.6460 C.3          1 NAD1395   0.0000
    34 O2D        -28.5700    18.7990    32.7240 O.3          1 NAD1395   0.0000
    35 C1D        -26.3560    19.8110    32.5970 C.3          1 NAD1395   0.0000
    36 N1N        -26.4100    20.3220    31.1980 N.ar         1 NAD1395   1.0000
    37 C2N        -27.4460    21.1570    30.8890 C.ar         1 NAD1395   0.0000
    38 C3N        -27.6090    21.6690    29.6030 C.ar         1 NAD1395   0.0000
    39 C7N        -28.7580    22.6060    29.2840 C.2          1 NAD1395   0.0000
    40 O7N        -28.8930    23.1170    27.9820 O.2          1 NAD1395   0.0000
    41 N7N        -29.6320    22.9640    30.2270 N.am         1 NAD1395   0.0000
    42 C4N        -26.6930    21.2970    28.6140 C.ar         1 NAD1395   0.0000
    43 C5N        -25.6470    20.4370    28.9350 C.ar         1 NAD1395   0.0000
    44 C6N        -25.5170    19.9460    30.2340 C.ar         1 NAD1395   0.0000
    45 H5B1       -21.5825    11.2623    30.9471 H            1 NAD1395   0.0000
    46 H5B2       -22.5829    12.5134    30.6300 H            1 NAD1395   0.0000
    47 H4B        -23.7517    10.5235    30.2551 H            1 NAD1395   0.0000
    48 H3B        -24.7422    12.2373    32.1986 H            1 NAD1395   0.0000
    49 H5         -26.0661    10.6651    30.2848 H            1 NAD1395   0.0000
    50 H2B        -24.9431    10.6000    33.6952 H            1 NAD1395   0.0000
    51 H7         -27.0954     9.7455    32.1190 H            1 NAD1395   0.0000
    52 H1B        -25.0724     8.7982    31.4709 H            1 NAD1395   0.0000
    53 H8A        -24.0864     8.9429    35.1462 H            1 NAD1395   0.0000
    54 H6A1       -24.5155     2.8524    34.9175 H            1 NAD1395   0.0000
    55 H6A2       -24.2007     4.2700    35.8617 H            1 NAD1395   0.0000
    56 H2A        -25.2475     4.3980    30.6804 H            1 NAD1395   0.0000
    57 H5D1       -23.2905    17.3433    33.8958 H            1 NAD1395   0.0000
    58 H5D2       -24.5251    16.2846    33.7495 H            1 NAD1395   0.0000
    59 H4D        -24.9402    18.5026    34.8574 H            1 NAD1395   0.0000
    60 H3D        -26.6865    16.8252    33.7407 H            1 NAD1395   0.0000
    61 H17        -28.1160    18.7998    34.7441 H            1 NAD1395   0.0000
    62 H2D        -26.9993    17.9829    31.8291 H            1 NAD1395   0.0000
    63 H19        -29.0816    18.0306    32.3395 H            1 NAD1395   0.0000
    64 H1D        -26.7730    20.4878    33.2037 H            1 NAD1395   0.0000
    65 H2N        -28.1020    21.4065    31.6013 H            1 NAD1395   0.0000
    66 H7N1       -30.3848    23.5827    30.0021 H            1 NAD1395   0.0000
    67 H7N2       -29.5341    22.6136    31.1585 H            1 NAD1395   0.0000
    68 H4N        -26.7890    21.6467    27.6821 H            1 NAD1395   0.0000
    69 H5N        -24.9870    20.1704    28.2326 H            1 NAD1395   0.0000
    70 H6N        -24.7711    19.3194    30.4598 H            1 NAD1395   0.0000
    71 H1A        -24.8921     3.0141    32.6126 H            1 NAD1395   0.0000
@<TRIPOS>BOND
     1    1    2      ar
     2    1    3      ar
     3    1    4       1
     4    1   23       1
     5    4    5       1
     6    5    6       1
     7    6    7       1
     8    6    8       1
     9    7   12       1
    10    8    9       1
    11    8   10       1
    12   10   11       1
    13   10   12       1
    14   12   13       1
    15   13   14       1
    16   13   22       1
    17   14   15       2
    18   15   16       1
    19   16   17      ar
    20   16   22      ar
    21   17   18       1
    22   17   19      ar
    23   19   20      ar
    24   20   21      ar
    25   21   22      ar
    26   23   24       1
    27   24   25      ar
    28   24   26      ar
    29   24   27       1
    30   27   28       1
    31   28   29       1
    32   29   30       1
    33   29   31       1
    34   30   35       1
    35   31   32       1
    36   31   33       1
    37   33   34       1
    38   33   35       1
    39   35   36       1
    40   36   37      ar
    41   36   44      ar
    42   37   38      ar
    43   38   39       1
    44   38   42      ar
    45   39   40       2
    46   39   41      am
    47   42   43      ar
    48   43   44      ar
    49   44   70       1
    50    5   45       1
    51    5   46       1
    52    6   47       1
    53    8   48       1
    54    9   49       1
    55   10   50       1
    56   11   51       1
    57   12   52       1
    58   14   53       1
    59   18   54       1
    60   18   55       1
    61   20   56       1
    62   43   69       1
    63   28   57       1
    64   28   58       1
    65   29   59       1
    66   31   60       1
    67   32   61       1
    68   33   62       1
    69   34   63       1
    70   35   64       1
    71   37   65       1
    72   41   66       1
    73   41   67       1
    74   42   68       1
    75   19   71       1
@<TRIPOS>SUBSTRUCTURE
     1 NAD1395     1 GROUP             4 B     NAD     0 **** NAD B1395
