@<TRIPOS>MOLECULE
4mgi_CMP_1_ligand
   34    37     1     0     0
SMALL
NO_CHARGES


@<TRIPOS>ATOM
     1 P            7.6880   -18.0020   -62.6290 P.3          1 CMP1001   0.0000
     2 O1P          8.1880   -19.1020   -61.7120 O.3          1 CMP1001   0.0000
     3 O2P          8.6450   -17.3110   -63.5690 O.2          1 CMP1001   0.0000
     4 O5'          6.4530   -18.5780   -63.5070 O.3          1 CMP1001   0.0000
     5 C5'          5.1440   -18.7690   -62.9530 C.3          1 CMP1001   0.0000
     6 C4'          4.7500   -17.4780   -62.2510 C.3          1 CMP1001   0.0000
     7 O4'          3.5040   -17.5010   -61.5490 O.3          1 CMP1001   0.0000
     8 C3'          5.7500   -17.1630   -61.1610 C.3          1 CMP1001   0.0000
     9 O3'          6.9970   -16.8320   -61.7540 O.3          1 CMP1001   0.0000
    10 C2'          5.0280   -16.1090   -60.3500 C.3          1 CMP1001   0.0000
    11 O2'          5.1260   -14.8180   -60.9560 O.3          1 CMP1001   0.0000
    12 C1'          3.5860   -16.5970   -60.4340 C.3          1 CMP1001   0.0000
    13 N9           3.1940   -17.2980   -59.1800 N.pl3        1 CMP1001   0.0000
    14 C8           2.3170   -16.8140   -58.2790 C.2          1 CMP1001   0.0000
    15 N7           2.1510   -17.6620   -57.2350 N.2          1 CMP1001   0.0000
    16 C5           2.9370   -18.7260   -57.4630 C.ar         1 CMP1001   0.0000
    17 C6           3.2340   -19.9910   -56.7560 C.ar         1 CMP1001   0.0000
    18 N6           2.6280   -20.2720   -55.5790 N.pl3        1 CMP1001   0.0000
    19 N1           4.1200   -20.8440   -57.3250 N.ar         1 CMP1001   0.0000
    20 C2           4.7170   -20.5670   -58.5040 C.ar         1 CMP1001   0.0000
    21 N3           4.4900   -19.4340   -59.1980 N.ar         1 CMP1001   0.0000
    22 C4           3.6250   -18.4900   -58.7430 C.ar         1 CMP1001   0.0000
    23 H1P          7.6400   -19.1135   -60.8756 H            1 CMP1001   0.0000
    24 H5'1         5.1580   -19.5236   -62.2969 H            1 CMP1001   0.0000
    25 H5'2         4.4913   -18.9736   -63.6825 H            1 CMP1001   0.0000
    26 H4'          4.7403   -16.7309   -62.9156 H            1 CMP1001   0.0000
    27 H3'          5.8715   -17.9769   -60.5928 H            1 CMP1001   0.0000
    28 H2'          5.3520   -16.0925   -59.4041 H            1 CMP1001   0.0000
    29 H7           5.9394   -14.3491   -60.6118 H            1 CMP1001   0.0000
    30 H1'          2.9770   -15.8188   -60.5876 H            1 CMP1001   0.0000
    31 H9           1.8462   -15.9364   -58.3695 H            1 CMP1001   0.0000
    32 H10          2.8312   -21.1281   -55.1039 H            1 CMP1001   0.0000
    33 H11          1.9770   -19.6235   -55.1844 H            1 CMP1001   0.0000
    34 H12          5.3588   -21.2350   -58.8807 H            1 CMP1001   0.0000
@<TRIPOS>BOND
     1    1    2       1
     2    1    3       2
     3    1    4       1
     4    1    9       1
     5    4    5       1
     6    5    6       1
     7    6    7       1
     8    6    8       1
     9    7   12       1
    10    8    9       1
    11    8   10       1
    12   10   11       1
    13   10   12       1
    14   12   13       1
    15   13   14       1
    16   13   22       1
    17   14   15       2
    18   15   16       1
    19   16   17      ar
    20   16   22      ar
    21   17   18       1
    22   17   19      ar
    23   19   20      ar
    24   20   21      ar
    25   21   22      ar
    26    2   23       1
    27    5   24       1
    28    5   25       1
    29    6   26       1
    30    8   27       1
    31   10   28       1
    32   11   29       1
    33   12   30       1
    34   14   31       1
    35   18   32       1
    36   18   33       1
    37   20   34       1
@<TRIPOS>SUBSTRUCTURE
     1 CMP1001     1 GROUP             4 E     CMP     0 **** CMP E1001
