@<TRIPOS>MOLECULE
2vqd_AP2_1_ligand
   41    43     1     0     0
SMALL
NO_CHARGES


@<TRIPOS>ATOM
     1 PB           5.2220    29.6880    12.5810 P.3          1 AP21448   0.0000
     2 O1B          4.6430    28.3050    12.4580 O.co2        1 AP21448   0.0000
     3 O2B          5.0870    30.2710    13.9630 O.co2        1 AP21448  -1.0000
     4 O3B          6.6140    29.8490    12.0110 O.co2        1 AP21448  -1.0000
     5 C3A          4.1600    30.8030    11.6730 C.3          1 AP21448   0.0000
     6 PA           3.5340    30.0950    10.1520 P.3          1 AP21448   0.0000
     7 O1A          3.8270    31.0860     9.0550 O.co2        1 AP21448   0.0000
     8 O2A          3.9660    28.6710     9.9280 O.co2        1 AP21448  -1.0000
     9 O5'          1.9680    30.0490    10.3760 O.3          1 AP21448   0.0000
    10 C5'          1.4160    29.1750    11.3510 C.3          1 AP21448   0.0000
    11 C4'         -0.0880    29.3980    11.3850 C.3          1 AP21448   0.0000
    12 O4'         -0.3990    30.7940    11.4730 O.3          1 AP21448   0.0000
    13 C3'         -0.7720    28.8890    10.1280 C.3          1 AP21448   0.0000
    14 O3'         -1.0770    27.4950    10.1830 O.3          1 AP21448   0.0000
    15 C2'         -2.0180    29.7430    10.1160 C.3          1 AP21448   0.0000
    16 O2'         -3.0030    29.1690    10.9680 O.3          1 AP21448   0.0000
    17 C1'         -1.5310    31.0840    10.6550 C.3          1 AP21448   0.0000
    18 N9          -1.1600    31.9390     9.5010 N.pl3        1 AP21448   0.0000
    19 C8           0.0810    32.1290     8.9890 C.2          1 AP21448   0.0000
    20 N7           0.0510    32.9660     7.9250 N.2          1 AP21448   0.0000
    21 C5          -1.2360    33.3200     7.7380 C.ar         1 AP21448   0.0000
    22 C6          -1.9820    34.1650     6.7770 C.ar         1 AP21448   0.0000
    23 N6          -1.3230    34.8180     5.7960 N.pl3        1 AP21448   0.0000
    24 N1          -3.3270    34.2640     6.9230 N.ar         1 AP21448   0.0000
    25 C2          -3.9910    33.6090     7.9030 C.ar         1 AP21448   0.0000
    26 N3          -3.3730    32.8220     8.8050 N.ar         1 AP21448   0.0000
    27 C4          -2.0290    32.6370     8.7740 C.ar         1 AP21448   0.0000
    28 H3A1         4.6805    31.6271    11.4498 H            1 AP21448   0.0000
    29 H3A2         3.3833    31.0465    12.2539 H            1 AP21448   0.0000
    30 H5'1         1.8092    29.3760    12.2482 H            1 AP21448   0.0000
    31 H5'2         1.6128    28.2257    11.1059 H            1 AP21448   0.0000
    32 H4'         -0.4708    28.9267    12.1796 H            1 AP21448   0.0000
    33 H3'         -0.2100    29.0876     9.3251 H            1 AP21448   0.0000
    34 H7          -0.4023    27.0285    10.7550 H            1 AP21448   0.0000
    35 H2'         -2.3698    29.8425     9.1852 H            1 AP21448   0.0000
    36 H9          -2.6418    28.3316    11.3783 H            1 AP21448   0.0000
    37 H1'         -2.2483    31.5225    11.1965 H            1 AP21448   0.0000
    38 H11          0.9116    31.7055     9.3506 H            1 AP21448   0.0000
    39 H12         -1.8281    35.3881     5.1480 H            1 AP21448   0.0000
    40 H13         -0.3298    34.7315     5.7174 H            1 AP21448   0.0000
    41 H14         -4.9839    33.7136     7.9603 H            1 AP21448   0.0000
@<TRIPOS>BOND
     1    1    2      ar
     2    1    3      ar
     3    1    4      ar
     4    1    5       1
     5    5    6       1
     6    6    7      ar
     7    6    8      ar
     8    6    9       1
     9    9   10       1
    10   10   11       1
    11   11   12       1
    12   11   13       1
    13   12   17       1
    14   13   14       1
    15   13   15       1
    16   15   16       1
    17   15   17       1
    18   17   18       1
    19   18   19       1
    20   18   27       1
    21   19   20       2
    22   20   21       1
    23   21   22      ar
    24   21   27      ar
    25   22   23       1
    26   22   24      ar
    27   24   25      ar
    28   25   26      ar
    29   26   27      ar
    30   25   41       1
    31   23   40       1
    32    5   28       1
    33    5   29       1
    34   23   39       1
    35   10   30       1
    36   10   31       1
    37   11   32       1
    38   13   33       1
    39   14   34       1
    40   15   35       1
    41   16   36       1
    42   17   37       1
    43   19   38       1
@<TRIPOS>SUBSTRUCTURE
     1 AP21448     1 GROUP             4 A     AP2     0 **** AP2 A1448
