@<TRIPOS>MOLECULE
1kol_NAD_1_ligand
   70    74     1     0     0
SMALL
NO_CHARGES


@<TRIPOS>ATOM
     1 PA         -45.4030    34.2330    75.9940 P.3          1 NAD1403   0.0000
     2 O1A        -45.3800    34.8730    74.6450 O.co2        1 NAD1403   0.0000
     3 O2A        -46.7480    33.9050    76.5060 O.co2        1 NAD1403  -1.0000
     4 O5B        -44.4170    33.0080    76.0020 O.3          1 NAD1403   0.0000
     5 C5B        -44.5450    31.8390    76.8620 C.3          1 NAD1403   0.0000
     6 C4B        -44.1730    30.6290    76.0380 C.3          1 NAD1403   0.0000
     7 O4B        -44.1260    29.4840    76.9430 O.3          1 NAD1403   0.0000
     8 C3B        -45.1910    30.2510    74.9220 C.3          1 NAD1403   0.0000
     9 O3B        -44.5370    30.2620    73.6520 O.3          1 NAD1403   0.0000
    10 C2B        -45.6910    28.8900    75.3470 C.3          1 NAD1403   0.0000
    11 O2B        -46.0500    27.9940    74.2880 O.3          1 NAD1403   0.0000
    12 C1B        -44.5230    28.3520    76.1790 C.3          1 NAD1403   0.0000
    13 N9A        -44.7960    27.2330    77.0730 N.pl3        1 NAD1403   0.0000
    14 C8A        -45.9470    26.8370    77.7000 C.2          1 NAD1403   0.0000
    15 N7A        -45.7650    25.7410    78.4300 N.2          1 NAD1403   0.0000
    16 C5A        -44.4550    25.4040    78.2630 C.ar         1 NAD1403   0.0000
    17 C6A        -43.6640    24.3630    78.7810 C.ar         1 NAD1403   0.0000
    18 N6A        -44.1020    23.4000    79.6030 N.pl3        1 NAD1403   0.0000
    19 N1A        -42.3650    24.3380    78.4120 N.ar         1 NAD1403   0.0000
    20 C2A        -41.8830    25.2960    77.5620 C.ar         1 NAD1403   0.0000
    21 N3A        -42.5280    26.3030    77.0350 N.ar         1 NAD1403   0.0000
    22 C4A        -43.8290    26.3030    77.4240 C.ar         1 NAD1403   0.0000
    23 O3         -44.7020    35.2360    77.0450 O.3          1 NAD1403   0.0000
    24 PN         -43.3880    36.1130    77.0760 P.3          1 NAD1403   0.0000
    25 O1N        -43.6390    37.4960    76.6430 O.co2        1 NAD1403   0.0000
    26 O2N        -42.2850    35.4450    76.4050 O.co2        1 NAD1403  -1.0000
    27 O5D        -43.2140    36.1280    78.7080 O.3          1 NAD1403   0.0000
    28 C5D        -42.8260    34.8520    79.2850 C.3          1 NAD1403   0.0000
    29 C4D        -43.1510    34.9040    80.7850 C.3          1 NAD1403   0.0000
    30 O4D        -42.3370    35.9750    81.3530 O.3          1 NAD1403   0.0000
    31 C3D        -44.5970    35.3070    81.0870 C.3          1 NAD1403   0.0000
    32 O3D        -45.0180    34.5550    82.2260 O.3          1 NAD1403   0.0000
    33 C2D        -44.4890    36.8010    81.3660 C.3          1 NAD1403   0.0000
    34 O2D        -45.5620    37.2610    82.1800 O.3          1 NAD1403   0.0000
    35 C1D        -43.1770    36.7840    82.1950 C.3          1 NAD1403   0.0000
    36 N1N        -42.5260    38.0880    82.2620 N.ar         1 NAD1403   1.0000
    37 C2N        -41.8470    38.2900    83.4340 C.ar         1 NAD1403   0.0000
    38 C3N        -41.1240    39.4170    83.6240 C.ar         1 NAD1403   0.0000
    39 C7N        -40.3320    39.7120    84.9410 C.2          1 NAD1403   0.0000
    40 O7N        -39.9140    40.8430    85.1280 O.2          1 NAD1403   0.0000
    41 N7N        -40.0960    38.6580    85.7270 N.am         1 NAD1403   0.0000
    42 C4N        -40.9260    40.4110    82.6330 C.ar         1 NAD1403   0.0000
    43 C5N        -41.5600    40.0530    81.4170 C.ar         1 NAD1403   0.0000
    44 C6N        -42.4110    38.9950    81.1910 C.ar         1 NAD1403   0.0000
    45 H5B1       -45.4871    31.7550    77.1866 H            1 NAD1403   0.0000
    46 H5B2       -43.9288    31.9217    77.6452 H            1 NAD1403   0.0000
    47 H4B        -43.2702    30.7685    75.6312 H            1 NAD1403   0.0000
    48 H3B        -45.9482    30.9042    74.9188 H            1 NAD1403   0.0000
    49 H5         -43.7883    29.5991    73.6568 H            1 NAD1403   0.0000
    50 H2B        -46.4823    29.0118    75.9462 H            1 NAD1403   0.0000
    51 H7         -45.2507    27.4551    74.0220 H            1 NAD1403   0.0000
    52 H1B        -43.7766    28.0994    75.5633 H            1 NAD1403   0.0000
    53 H8A        -46.8212    27.3157    77.6184 H            1 NAD1403   0.0000
    54 H6A1       -43.4719    22.6942    79.9267 H            1 NAD1403   0.0000
    55 H6A2       -45.0590    23.3870    79.8928 H            1 NAD1403   0.0000
    56 H2A        -40.9178    25.2156    77.3133 H            1 NAD1403   0.0000
    57 H5D1       -41.8462    34.7018    79.1532 H            1 NAD1403   0.0000
    58 H5D2       -43.3382    34.1112    78.8504 H            1 NAD1403   0.0000
    59 H4D        -42.9331    34.0306    81.2205 H            1 NAD1403   0.0000
    60 H3D        -45.1901    35.1307    80.3014 H            1 NAD1403   0.0000
    61 H17        -44.9615    33.5781    82.0199 H            1 NAD1403   0.0000
    62 H2D        -44.3972    37.3356    80.5259 H            1 NAD1403   0.0000
    63 H19        -45.4599    38.2424    82.3428 H            1 NAD1403   0.0000
    64 H1D        -43.3069    36.3793    83.1002 H            1 NAD1403   0.0000
    65 H2N        -41.8861    37.5985    84.1553 H            1 NAD1403   0.0000
    66 H7N1       -39.5948    38.7758    86.5842 H            1 NAD1403   0.0000
    67 H7N2       -40.4206    37.7512    85.4582 H            1 NAD1403   0.0000
    68 H4N        -40.4071    41.2542    82.7734 H            1 NAD1403   0.0000
    69 H5N        -41.3661    40.6385    80.6299 H            1 NAD1403   0.0000
    70 H6N        -42.9095    38.8793    80.3319 H            1 NAD1403   0.0000
@<TRIPOS>BOND
     1    1    2      ar
     2    1    3      ar
     3    1    4       1
     4    1   23       1
     5    4    5       1
     6    5    6       1
     7    6    7       1
     8    6    8       1
     9    7   12       1
    10    8    9       1
    11    8   10       1
    12   10   11       1
    13   10   12       1
    14   12   13       1
    15   13   14       1
    16   13   22       1
    17   14   15       2
    18   15   16       1
    19   16   17      ar
    20   16   22      ar
    21   17   18       1
    22   17   19      ar
    23   19   20      ar
    24   20   21      ar
    25   21   22      ar
    26   23   24       1
    27   24   25      ar
    28   24   26      ar
    29   24   27       1
    30   27   28       1
    31   28   29       1
    32   29   30       1
    33   29   31       1
    34   30   35       1
    35   31   32       1
    36   31   33       1
    37   33   34       1
    38   33   35       1
    39   35   36       1
    40   36   37      ar
    41   36   44      ar
    42   37   38      ar
    43   38   39       1
    44   38   42      ar
    45   39   40       2
    46   39   41      am
    47   42   43      ar
    48   43   44      ar
    49   44   70       1
    50    5   45       1
    51    5   46       1
    52    6   47       1
    53    8   48       1
    54    9   49       1
    55   10   50       1
    56   11   51       1
    57   12   52       1
    58   14   53       1
    59   18   54       1
    60   18   55       1
    61   20   56       1
    62   43   69       1
    63   28   57       1
    64   28   58       1
    65   29   59       1
    66   31   60       1
    67   32   61       1
    68   33   62       1
    69   34   63       1
    70   35   64       1
    71   37   65       1
    72   41   66       1
    73   41   67       1
    74   42   68       1
@<TRIPOS>SUBSTRUCTURE
     1 NAD1403     1 GROUP             4 A     NAD     0 **** NAD A1403
