@<TRIPOS>MOLECULE
1hdz_NAD_2_ligand
   70    74     1     0     0
SMALL
NO_CHARGES


@<TRIPOS>ATOM
     1 PA           7.1680   -10.9220   -64.9960 P.3          1 NAD377   0.0000
     2 O1A          6.1120   -11.9780   -65.1340 O.co2        1 NAD377   0.0000
     3 O2A          8.2270   -11.1760   -65.9960 O.co2        1 NAD377  -1.0000
     4 O5B          7.9280   -11.1340   -63.5560 O.3          1 NAD377   0.0000
     5 C5B          7.2170   -11.5570   -62.3070 C.3          1 NAD377   0.0000
     6 C4B          8.0650   -12.4770   -61.4580 C.3          1 NAD377   0.0000
     7 O4B          7.2980   -12.8520   -60.3120 O.3          1 NAD377   0.0000
     8 C3B          8.4100   -13.7880   -62.1880 C.3          1 NAD377   0.0000
     9 O3B          9.8030   -13.9450   -62.0940 O.3          1 NAD377   0.0000
    10 C2B          7.7310   -14.8400   -61.3240 C.3          1 NAD377   0.0000
    11 O2B          8.5700   -15.9900   -61.3120 O.3          1 NAD377   0.0000
    12 C1B          7.7610   -14.1460   -59.9350 C.3          1 NAD377   0.0000
    13 N9A          6.8070   -14.7530   -59.0180 N.pl3        1 NAD377   0.0000
    14 C8A          5.6250   -15.2570   -59.3530 C.2          1 NAD377   0.0000
    15 N7A          4.9140   -15.7280   -58.3430 N.2          1 NAD377   0.0000
    16 C5A          5.7030   -15.4970   -57.3290 C.ar         1 NAD377   0.0000
    17 C6A          5.4450   -15.7470   -55.9890 C.ar         1 NAD377   0.0000
    18 N6A          4.2740   -16.3020   -55.6030 N.pl3        1 NAD377   0.0000
    19 N1A          6.3810   -15.3740   -55.1270 N.ar         1 NAD377   0.0000
    20 C2A          7.5310   -14.7910   -55.5630 C.ar         1 NAD377   0.0000
    21 N3A          7.8020   -14.5330   -56.8620 N.ar         1 NAD377   0.0000
    22 C4A          6.8610   -14.9060   -57.7270 C.ar         1 NAD377   0.0000
    23 O3           6.5070    -9.4900   -65.1100 O.3          1 NAD377   0.0000
    24 PN           7.2200    -8.0580   -65.0420 P.3          1 NAD377   0.0000
    25 O1N          6.9640    -7.3340   -66.3060 O.co2        1 NAD377   0.0000
    26 O2N          8.6990    -8.0190   -64.8140 O.co2        1 NAD377  -1.0000
    27 O5D          6.4800    -7.1560   -63.9410 O.3          1 NAD377   0.0000
    28 C5D          5.5650    -7.7790   -63.0060 C.3          1 NAD377   0.0000
    29 C4D          4.6780    -6.7790   -62.3380 C.3          1 NAD377   0.0000
    30 O4D          5.0110    -5.3800   -62.4750 O.3          1 NAD377   0.0000
    31 C3D          3.4120    -6.9830   -63.0570 C.3          1 NAD377   0.0000
    32 O3D          2.4450    -7.1560   -62.0410 O.3          1 NAD377   0.0000
    33 C2D          3.2170    -5.6500   -63.7910 C.3          1 NAD377   0.0000
    34 O2D          1.8020    -5.5410   -63.8390 O.3          1 NAD377   0.0000
    35 C1D          3.8510    -4.6390   -62.8440 C.3          1 NAD377   0.0000
    36 N1N          4.2790    -3.3660   -63.4690 N.ar         1 NAD377   1.0000
    37 C2N          3.9710    -2.2340   -62.8570 C.ar         1 NAD377   0.0000
    38 C3N          4.3670    -1.0470   -63.3480 C.ar         1 NAD377   0.0000
    39 C7N          4.0610     0.1080   -62.7320 C.2          1 NAD377   0.0000
    40 O7N          4.4510     1.1650   -63.2230 O.2          1 NAD377   0.0000
    41 N7N          3.6770     0.1670   -61.4530 N.am         1 NAD377   0.0000
    42 C4N          5.0890    -0.9950   -64.4760 C.ar         1 NAD377   0.0000
    43 C5N          5.4180    -2.1080   -65.1260 C.ar         1 NAD377   0.0000
    44 C6N          4.9890    -3.3210   -64.5910 C.ar         1 NAD377   0.0000
    45 H5B1         6.3759   -12.0349   -62.5602 H            1 NAD377   0.0000
    46 H5B2         6.9898   -10.7426   -61.7730 H            1 NAD377   0.0000
    47 H4B          8.9024   -12.0098   -61.1744 H            1 NAD377   0.0000
    48 H3B          8.0848   -13.7987   -63.1336 H            1 NAD377   0.0000
    49 H5          10.0689   -13.9924   -61.1312 H            1 NAD377   0.0000
    50 H2B          6.8016   -15.0463   -61.6299 H            1 NAD377   0.0000
    51 H7           9.2142   -15.9247   -60.5499 H            1 NAD377   0.0000
    52 H1B          8.6837   -14.1166   -59.5506 H            1 NAD377   0.0000
    53 H8A          5.2976   -15.2786   -60.2976 H            1 NAD377   0.0000
    54 H6A1         4.0992   -16.4776   -54.6342 H            1 NAD377   0.0000
    55 H6A2         3.5827   -16.5369   -56.2864 H            1 NAD377   0.0000
    56 H2A          8.2172   -14.5381   -54.8809 H            1 NAD377   0.0000
    57 H5D1         6.0952    -8.2581   -62.3065 H            1 NAD377   0.0000
    58 H5D2         4.9957    -8.4356   -63.5007 H            1 NAD377   0.0000
    59 H4D          4.5652    -7.0117   -61.3720 H            1 NAD377   0.0000
    60 H3D          3.4504    -7.7614   -63.6836 H            1 NAD377   0.0000
    61 H17          1.7147    -7.7526   -62.3739 H            1 NAD377   0.0000
    62 H2D          3.6359    -5.6442   -64.6990 H            1 NAD377   0.0000
    63 H19          1.3981    -6.4553   -63.8694 H            1 NAD377   0.0000
    64 H1D          3.2643    -4.4713   -62.0517 H            1 NAD377   0.0000
    65 H2N          3.4339    -2.2621   -62.0139 H            1 NAD377   0.0000
    66 H7N1         3.4592     1.0497   -61.0366 H            1 NAD377   0.0000
    67 H7N2         3.6075    -0.6715   -60.9126 H            1 NAD377   0.0000
    68 H4N          5.3839    -0.1088   -64.8333 H            1 NAD377   0.0000
    69 H5N          5.9545    -2.0753   -65.9692 H            1 NAD377   0.0000
    70 H6N          5.2198    -4.1734   -65.0602 H            1 NAD377   0.0000
@<TRIPOS>BOND
     1    1    2      ar
     2    1    3      ar
     3    1    4       1
     4    1   23       1
     5    4    5       1
     6    5    6       1
     7    6    7       1
     8    6    8       1
     9    7   12       1
    10    8    9       1
    11    8   10       1
    12   10   11       1
    13   10   12       1
    14   12   13       1
    15   13   14       1
    16   13   22       1
    17   14   15       2
    18   15   16       1
    19   16   17      ar
    20   16   22      ar
    21   17   18       1
    22   17   19      ar
    23   19   20      ar
    24   20   21      ar
    25   21   22      ar
    26   23   24       1
    27   24   25      ar
    28   24   26      ar
    29   24   27       1
    30   27   28       1
    31   28   29       1
    32   29   30       1
    33   29   31       1
    34   30   35       1
    35   31   32       1
    36   31   33       1
    37   33   34       1
    38   33   35       1
    39   35   36       1
    40   36   37      ar
    41   36   44      ar
    42   37   38      ar
    43   38   39       1
    44   38   42      ar
    45   39   40       2
    46   39   41      am
    47   42   43      ar
    48   43   44      ar
    49   44   70       1
    50    5   45       1
    51    5   46       1
    52    6   47       1
    53    8   48       1
    54    9   49       1
    55   10   50       1
    56   11   51       1
    57   12   52       1
    58   14   53       1
    59   18   54       1
    60   18   55       1
    61   20   56       1
    62   43   69       1
    63   28   57       1
    64   28   58       1
    65   29   59       1
    66   31   60       1
    67   32   61       1
    68   33   62       1
    69   34   63       1
    70   35   64       1
    71   37   65       1
    72   41   66       1
    73   41   67       1
    74   42   68       1
@<TRIPOS>SUBSTRUCTURE
     1 NAD377      1 GROUP             4 B     NAD     0 **** NAD B 377
