@<TRIPOS>MOLECULE
4i1v_ADP_1_ligand
   39    41     1     0     0
SMALL
NO_CHARGES


@<TRIPOS>ATOM
     1 PB          67.5820    25.8090   -21.0810 P.3          1 ADP301   0.0000
     2 O1B         66.5820    26.7270   -20.4070 O.co2        1 ADP301   0.0000
     3 O2B         68.3120    24.9120   -20.1300 O.co2        1 ADP301  -1.0000
     4 O3B         68.4760    26.4350   -22.1190 O.co2        1 ADP301  -1.0000
     5 PA          65.4200    25.3680   -22.8820 P.3          1 ADP301   0.0000
     6 O1A         64.2110    24.5530   -22.4810 O.co2        1 ADP301   0.0000
     7 O2A         65.2870    26.8610   -22.8780 O.co2        1 ADP301  -1.0000
     8 O3A         66.7140    24.8670   -22.0530 O.3          1 ADP301   0.0000
     9 O5'         66.1000    25.1870   -24.3210 O.3          1 ADP301   0.0000
    10 C5'         66.3160    24.1000   -25.1750 C.3          1 ADP301   0.0000
    11 C4'         66.0170    24.6010   -26.5730 C.3          1 ADP301   0.0000
    12 O4'         65.5900    23.4790   -27.3550 O.3          1 ADP301   0.0000
    13 C3'         64.8200    25.5200   -26.6020 C.3          1 ADP301   0.0000
    14 O3'         64.8010    26.2530   -27.8140 O.3          1 ADP301   0.0000
    15 C2'         63.6200    24.6010   -26.6400 C.3          1 ADP301   0.0000
    16 O2'         62.5470    25.2020   -27.3560 O.3          1 ADP301   0.0000
    17 C1'         64.1510    23.4010   -27.4000 C.3          1 ADP301   0.0000
    18 N9          63.7760    22.1260   -26.7780 N.pl3        1 ADP301   0.0000
    19 C8          63.8110    21.7950   -25.4610 C.2          1 ADP301   0.0000
    20 N7          63.4330    20.5220   -25.2720 N.2          1 ADP301   0.0000
    21 C5          63.1470    20.0370   -26.4750 C.ar         1 ADP301   0.0000
    22 C6          62.6800    18.7510   -26.9860 C.ar         1 ADP301   0.0000
    23 N6          62.4400    17.7330   -26.1350 N.pl3        1 ADP301   0.0000
    24 N1          62.5180    18.6530   -28.3310 N.ar         1 ADP301   0.0000
    25 C2          62.7530    19.6840   -29.1910 C.ar         1 ADP301   0.0000
    26 N3          63.1620    20.8830   -28.7750 N.ar         1 ADP301   0.0000
    27 C4          63.3780    21.0930   -27.4670 C.ar         1 ADP301   0.0000
    28 H5'1        65.7042    23.3452   -24.9382 H            1 ADP301   0.0000
    29 H5'2        67.2653    23.7920   -25.1120 H            1 ADP301   0.0000
    30 H4'         66.8189    25.0396   -26.9786 H            1 ADP301   0.0000
    31 H3'         64.7981    26.1234   -25.8049 H            1 ADP301   0.0000
    32 H5          63.9569    26.0527   -28.3115 H            1 ADP301   0.0000
    33 H2'         63.3356    24.3437   -25.7165 H            1 ADP301   0.0000
    34 H7          61.9955    24.4896   -27.7900 H            1 ADP301   0.0000
    35 H1'         63.8347    23.4271   -28.3483 H            1 ADP301   0.0000
    36 H9          64.0830    22.4188   -24.7283 H            1 ADP301   0.0000
    37 H10         62.1203    16.8528   -26.4858 H            1 ADP301   0.0000
    38 H11         62.5817    17.8582   -25.1530 H            1 ADP301   0.0000
    39 H12         62.6135    19.5357   -30.1701 H            1 ADP301   0.0000
@<TRIPOS>BOND
     1    1    2      ar
     2    1    3      ar
     3    1    4      ar
     4    1    8       1
     5    5    6      ar
     6    5    7      ar
     7    5    8       1
     8    5    9       1
     9    9   10       1
    10   10   11       1
    11   11   12       1
    12   11   13       1
    13   12   17       1
    14   13   14       1
    15   13   15       1
    16   15   16       1
    17   15   17       1
    18   17   18       1
    19   18   19       1
    20   18   27       1
    21   19   20       2
    22   20   21       1
    23   21   22      ar
    24   21   27      ar
    25   22   23       1
    26   22   24      ar
    27   24   25      ar
    28   25   26      ar
    29   26   27      ar
    30   25   39       1
    31   23   38       1
    32   23   37       1
    33   10   28       1
    34   10   29       1
    35   11   30       1
    36   13   31       1
    37   14   32       1
    38   15   33       1
    39   16   34       1
    40   17   35       1
    41   19   36       1
@<TRIPOS>SUBSTRUCTURE
     1 ADP301      1 GROUP             4 A     ADP     0 **** ADP A 301
