@<TRIPOS>MOLECULE
4aub_NAP_3_ligand
   73    77     1     0     0
SMALL
NO_CHARGES


@<TRIPOS>ATOM
     1 PA         -38.1670    29.0430   -22.0470 P.3          1 NAP500   0.0000
     2 O1A        -38.3180    29.8530   -20.7280 O.co2        1 NAP500   0.0000
     3 O2A        -39.1770    28.9700   -23.2270 O.co2        1 NAP500  -1.0000
     4 O5B        -36.6550    29.4670   -22.5260 O.3          1 NAP500   0.0000
     5 C5B        -35.5220    29.2880   -21.6760 C.3          1 NAP500   0.0000
     6 C4B        -34.2540    29.7540   -22.3420 C.3          1 NAP500   0.0000
     7 O4B        -34.4720    31.0570   -22.9220 O.3          1 NAP500   0.0000
     8 C3B        -33.0710    29.8810   -21.3970 C.3          1 NAP500   0.0000
     9 O3B        -32.3460    28.6470   -21.1910 O.3          1 NAP500   0.0000
    10 C2B        -32.2430    30.9460   -22.1010 C.3          1 NAP500   0.0000
    11 O2B        -31.4730    30.3400   -23.1540 O.3          1 NAP500   0.0000
    12 C1B        -33.3150    31.8710   -22.6840 C.3          1 NAP500   0.0000
    13 N9A        -33.6710    32.9900   -21.7550 N.pl3        1 NAP500   0.0000
    14 C8A        -34.4170    32.8800   -20.6280 C.2          1 NAP500   0.0000
    15 N7A        -34.5570    34.0790   -20.0190 N.2          1 NAP500   0.0000
    16 C5A        -33.9070    34.9820   -20.7830 C.ar         1 NAP500   0.0000
    17 C6A        -33.6550    36.4470   -20.7140 C.ar         1 NAP500   0.0000
    18 N6A        -34.1580    37.1670   -19.6850 N.pl3        1 NAP500   0.0000
    19 N1A        -32.8770    36.9890   -21.7050 N.ar         1 NAP500   0.0000
    20 C2A        -32.3700    36.2700   -22.7350 C.ar         1 NAP500   0.0000
    21 N3A        -32.5790    34.9380   -22.8590 N.ar         1 NAP500   0.0000
    22 C4A        -33.3170    34.2590   -21.9310 C.ar         1 NAP500   0.0000
    23 O3         -38.0190    27.5470   -21.4160 O.3          1 NAP500   0.0000
    24 PN         -37.3220    26.1710   -21.9590 P.3          1 NAP500   0.0000
    25 O1N        -35.9020    26.0490   -21.3650 O.co2        1 NAP500   0.0000
    26 O2N        -37.5710    26.0760   -23.4680 O.co2        1 NAP500  -1.0000
    27 O5D        -38.3160    25.2450   -21.0750 O.3          1 NAP500   0.0000
    28 C5D        -38.5880    25.6150   -19.7060 C.3          1 NAP500   0.0000
    29 C4D        -38.6970    24.3920   -18.8290 C.3          1 NAP500   0.0000
    30 O4D        -39.9680    23.7950   -19.1630 O.3          1 NAP500   0.0000
    31 C3D        -37.7180    23.2480   -18.9870 C.3          1 NAP500   0.0000
    32 O3D        -36.4630    23.4070   -18.2520 O.3          1 NAP500   0.0000
    33 C2D        -38.5700    22.0270   -18.5340 C.3          1 NAP500   0.0000
    34 O2D        -38.5660    21.8830   -17.0820 O.3          1 NAP500   0.0000
    35 C1D        -39.9770    22.3400   -19.0610 C.3          1 NAP500   0.0000
    36 N1N        -40.3750    21.6760   -20.3340 N.ar         1 NAP500   1.0000
    37 C2N        -41.2430    20.6240   -20.3020 C.ar         1 NAP500   0.0000
    38 C3N        -41.6330    19.9290   -21.4600 C.ar         1 NAP500   0.0000
    39 C7N        -42.6400    18.7820   -21.4700 C.2          1 NAP500   0.0000
    40 O7N        -42.7280    17.9500   -22.3930 O.2          1 NAP500   0.0000
    41 N7N        -43.4590    18.6870   -20.4330 N.am         1 NAP500   0.0000
    42 C4N        -41.0800    20.3820   -22.6540 C.ar         1 NAP500   0.0000
    43 C5N        -40.1940    21.4580   -22.6740 C.ar         1 NAP500   0.0000
    44 C6N        -39.8330    22.0630   -21.4910 C.ar         1 NAP500   0.0000
    45 P2B        -29.9880    30.7630   -23.6790 P.3          1 NAP500   0.0000
    46 O1X        -30.3080    31.2570   -25.0720 O.co2        1 NAP500   0.0000
    47 O2X        -29.4650    31.7670   -22.6720 O.co2        1 NAP500  -1.0000
    48 O3X        -29.1260    29.5030   -23.6930 O.co2        1 NAP500  -1.0000
    49 H5B1       -35.4338    28.3174   -21.4520 H            1 NAP500   0.0000
    50 H5B2       -35.6597    29.8127   -20.8360 H            1 NAP500   0.0000
    51 H4B        -34.0174    29.1117   -23.0710 H            1 NAP500   0.0000
    52 H3B        -33.3857    30.2331   -20.5155 H            1 NAP500   0.0000
    53 H5         -32.7392    28.1551   -20.4142 H            1 NAP500   0.0000
    54 H2B        -31.6548    31.4336   -21.4558 H            1 NAP500   0.0000
    55 H1B        -32.9912    32.2495   -23.5511 H            1 NAP500   0.0000
    56 H8A        -34.8116    32.0249   -20.2917 H            1 NAP500   0.0000
    57 H6A1       -33.9909    38.1517   -19.6350 H            1 NAP500   0.0000
    58 H6A2       -34.6969    36.7145   -18.9744 H            1 NAP500   0.0000
    59 H2A        -31.8224    36.7392   -23.4278 H            1 NAP500   0.0000
    60 H5D1       -39.4490    26.1223   -19.6689 H            1 NAP500   0.0000
    61 H5D2       -37.8453    26.1939   -19.3696 H            1 NAP500   0.0000
    62 H4D        -38.7127    24.6780   -17.8709 H            1 NAP500   0.0000
    63 H3D        -37.5057    23.1439   -19.9586 H            1 NAP500   0.0000
    64 H16        -35.7945    23.8737   -18.8310 H            1 NAP500   0.0000
    65 H2D        -38.2235    21.1917   -18.9609 H            1 NAP500   0.0000
    66 H18        -39.1206    21.0919   -16.8240 H            1 NAP500   0.0000
    67 H1D        -40.6376    22.0819   -18.3560 H            1 NAP500   0.0000
    68 H2N        -41.6165    20.3360   -19.4202 H            1 NAP500   0.0000
    69 H7N1       -44.1355    17.9515   -20.3959 H            1 NAP500   0.0000
    70 H7N2       -43.4007    19.3508   -19.6873 H            1 NAP500   0.0000
    71 H4N        -41.3222    19.9282   -23.5116 H            1 NAP500   0.0000
    72 H5N        -39.8230    21.7884   -23.5419 H            1 NAP500   0.0000
    73 H6N        -39.1575    22.8003   -21.4986 H            1 NAP500   0.0000
@<TRIPOS>BOND
     1    1    2      ar
     2    1    3      ar
     3    1    4       1
     4    1   23       1
     5    4    5       1
     6    5    6       1
     7    6    7       1
     8    6    8       1
     9    7   12       1
    10    8    9       1
    11    8   10       1
    12   10   11       1
    13   10   12       1
    14   11   45       1
    15   12   13       1
    16   13   14       1
    17   13   22       1
    18   14   15       2
    19   15   16       1
    20   16   17      ar
    21   16   22      ar
    22   17   18       1
    23   17   19      ar
    24   19   20      ar
    25   20   21      ar
    26   21   22      ar
    27   23   24       1
    28   24   25      ar
    29   24   26      ar
    30   24   27       1
    31   27   28       1
    32   28   29       1
    33   29   30       1
    34   29   31       1
    35   30   35       1
    36   31   32       1
    37   31   33       1
    38   33   34       1
    39   33   35       1
    40   35   36       1
    41   36   37      ar
    42   36   44      ar
    43   37   38      ar
    44   38   39       1
    45   38   42      ar
    46   39   40       2
    47   39   41      am
    48   42   43      ar
    49   43   44      ar
    50   45   46      ar
    51   45   47      ar
    52   45   48      ar
    53   43   72       1
    54    5   49       1
    55    5   50       1
    56    6   51       1
    57    8   52       1
    58    9   53       1
    59   10   54       1
    60   12   55       1
    61   14   56       1
    62   18   57       1
    63   18   58       1
    64   20   59       1
    65   44   73       1
    66   28   60       1
    67   28   61       1
    68   29   62       1
    69   31   63       1
    70   32   64       1
    71   33   65       1
    72   34   66       1
    73   35   67       1
    74   37   68       1
    75   41   69       1
    76   41   70       1
    77   42   71       1
@<TRIPOS>SUBSTRUCTURE
     1 NAP500      1 GROUP             4 C     NAP     0 **** NAP C 500
