@<TRIPOS>MOLECULE
1knp_FAD_1_ligand
   84    89     1     0     0
SMALL
NO_CHARGES


@<TRIPOS>ATOM
     1 PA          70.9900    44.5030   134.2360 P.3          1 FAD800   0.0000
     2 O1A         70.1590    45.2480   135.1810 O.co2        1 FAD800   0.0000
     3 O2A         70.2540    43.3440   133.5980 O.co2        1 FAD800  -1.0000
     4 O5B         72.1670    43.9300   135.1470 O.3          1 FAD800   0.0000
     5 C5B         73.1950    44.7050   135.6710 C.3          1 FAD800   0.0000
     6 C4B         74.2170    43.7510   136.2680 C.3          1 FAD800   0.0000
     7 O4B         75.2090    44.5550   136.8040 O.3          1 FAD800   0.0000
     8 C3B         73.7650    42.8870   137.4320 C.3          1 FAD800   0.0000
     9 O3B         74.4020    41.6280   137.3320 O.3          1 FAD800   0.0000
    10 C2B         74.3360    43.5600   138.6450 C.3          1 FAD800   0.0000
    11 O2B         74.7850    42.5810   139.5340 O.3          1 FAD800   0.0000
    12 C1B         75.5980    44.0450   138.0530 C.3          1 FAD800   0.0000
    13 N9A         76.0590    45.0810   138.9270 N.pl3        1 FAD800   0.0000
    14 C8A         75.4170    46.2500   139.1670 C.2          1 FAD800   0.0000
    15 N7A         76.1500    46.9920   140.0150 N.2          1 FAD800   0.0000
    16 C5A         77.2400    46.2940   140.2790 C.ar         1 FAD800   0.0000
    17 C6A         78.3000    46.6070   141.0790 C.ar         1 FAD800   0.0000
    18 N6A         78.2920    47.7340   141.7980 N.pl3        1 FAD800   0.0000
    19 N1A         79.2980    45.6620   141.1540 N.ar         1 FAD800   0.0000
    20 C2A         79.2710    44.4730   140.4450 C.ar         1 FAD800   0.0000
    21 N3A         78.2080    44.1660   139.6630 N.ar         1 FAD800   0.0000
    22 C4A         77.2090    45.0840   139.6040 C.ar         1 FAD800   0.0000
    23 N1          63.6040    46.0880   128.2960 N.2          1 FAD800   0.0000
    24 C2          63.3130    45.5320   127.0720 C.2          1 FAD800   0.0000
    25 O2          63.9810    45.8620   126.0930 O.2          1 FAD800   0.0000
    26 N3          62.2570    44.6240   126.9300 N.pl3        1 FAD800   0.0000
    27 C4          61.5210    44.2850   128.0400 C.2          1 FAD800   0.0000
    28 O4          60.6760    43.4190   127.9290 O.2          1 FAD800   0.0000
    29 C4X         61.8440    44.8150   129.2850 C.2          1 FAD800   0.0000
    30 N5          61.1110    44.4680   130.4070 N.2          1 FAD800   0.0000
    31 C5X         61.4890    45.0640   131.5920 C.ar         1 FAD800   0.0000
    32 C6          60.8070    44.7540   132.7320 C.ar         1 FAD800   0.0000
    33 C7          61.1770    45.2190   133.9770 C.ar         1 FAD800   0.0000
    34 C7M         60.3610    44.8120   135.2110 C.3          1 FAD800   0.0000
    35 C8          62.3260    46.0500   134.0430 C.ar         1 FAD800   0.0000
    36 C8M         62.8740    46.5320   135.3520 C.3          1 FAD800   0.0000
    37 C9          63.0420    46.3610   132.8970 C.ar         1 FAD800   0.0000
    38 C9A         62.6150    45.8900   131.6760 C.ar         1 FAD800   0.0000
    39 N10         63.3110    46.2440   130.5460 N.pl3        1 FAD800   0.0000
    40 C10         62.9020    45.7190   129.3720 C.2          1 FAD800   0.0000
    41 C1'         64.3720    47.2840   130.5440 C.3          1 FAD800   0.0000
    42 C2'         65.5590    46.4230   130.3300 C.3          1 FAD800   0.0000
    43 O2'         64.9670    45.3260   130.9440 O.3          1 FAD800   0.0000
    44 C3'         66.8350    46.7860   131.0750 C.3          1 FAD800   0.0000
    45 O3'         67.2970    48.0950   130.8080 O.3          1 FAD800   0.0000
    46 C4'         67.9650    45.8550   130.7190 C.3          1 FAD800   0.0000
    47 O4'         67.6410    44.6410   131.3450 O.3          1 FAD800   0.0000
    48 C5'         69.2640    46.3840   131.3350 C.3          1 FAD800   0.0000
    49 O5'         70.1900    45.3080   131.3030 O.3          1 FAD800   0.0000
    50 P           71.7390    45.3920   131.6350 P.3          1 FAD800   0.0000
    51 O1P         72.4960    44.2790   131.0750 O.co2        1 FAD800   0.0000
    52 O2P         72.2510    46.6460   131.0170 O.co2        1 FAD800  -1.0000
    53 O3P         71.7820    45.4580   133.2100 O.3          1 FAD800   0.0000
    54 H5B1        72.8384    45.3130   136.3804 H            1 FAD800   0.0000
    55 H5B2        73.6171    45.2497   134.9463 H            1 FAD800   0.0000
    56 H4B         74.6019    43.1738   135.5478 H            1 FAD800   0.0000
    57 H3B         72.7694    42.8049   137.4782 H            1 FAD800   0.0000
    58 H5          74.9551    41.4684   138.1497 H            1 FAD800   0.0000
    59 H2B         73.7572    44.2679   139.0498 H            1 FAD800   0.0000
    60 H7          74.2948    42.6682   140.4012 H            1 FAD800   0.0000
    61 H1B         76.2707    43.3109   137.9607 H            1 FAD800   0.0000
    62 H8A         74.5370    46.5183   138.7752 H            1 FAD800   0.0000
    63 H6A1        79.0711    47.9594   142.3830 H            1 FAD800   0.0000
    64 H6A2        77.5069    48.3516   141.7508 H            1 FAD800   0.0000
    65 H2A         80.0402    43.8374   140.5105 H            1 FAD800   0.0000
    66 H13         62.0420    44.2291   126.0368 H            1 FAD800   0.0000
    67 H14         60.0031    44.1634   132.6621 H            1 FAD800   0.0000
    68 H7M1        60.7592    45.2310   136.0270 H            1 FAD800   0.0000
    69 H7M2        59.4167    45.1230   135.1036 H            1 FAD800   0.0000
    70 H7M3        60.3753    43.8167   135.3066 H            1 FAD800   0.0000
    71 H8M1        63.6798    47.1006   135.1869 H            1 FAD800   0.0000
    72 H8M2        62.1778    47.0703   135.8269 H            1 FAD800   0.0000
    73 H8M3        63.1300    45.7467   135.9156 H            1 FAD800   0.0000
    74 H21         63.8654    46.9253   132.9573 H            1 FAD800   0.0000
    75 H1'1        64.4175    47.7720   131.4157 H            1 FAD800   0.0000
    76 H1'2        64.2488    47.9410   129.8002 H            1 FAD800   0.0000
    77 H2'         65.7293    46.2587   129.3584 H            1 FAD800   0.0000
    78 H25         65.6736    44.7604   131.3692 H            1 FAD800   0.0000
    79 H3'         66.6598    46.7079   132.0564 H            1 FAD800   0.0000
    80 H27         67.3254    48.6186   131.6595 H            1 FAD800   0.0000
    81 H4'         68.0489    45.7443   129.7287 H            1 FAD800   0.0000
    82 H29         68.3531    43.9660   131.1519 H            1 FAD800   0.0000
    83 H5'1        69.1057    46.6761   132.2782 H            1 FAD800   0.0000
    84 H5'2        69.6111    47.1550   130.8011 H            1 FAD800   0.0000
@<TRIPOS>BOND
     1    1    2      ar
     2    1    3      ar
     3    1    4       1
     4    1   53       1
     5    4    5       1
     6    5    6       1
     7    6    7       1
     8    6    8       1
     9    7   12       1
    10    8    9       1
    11    8   10       1
    12   10   11       1
    13   10   12       1
    14   12   13       1
    15   13   14       1
    16   13   22       1
    17   14   15       2
    18   15   16       1
    19   16   17      ar
    20   16   22      ar
    21   17   18       1
    22   17   19      ar
    23   19   20      ar
    24   20   21      ar
    25   21   22      ar
    26   23   24       1
    27   23   40       2
    28   24   25       2
    29   24   26       1
    30   26   27       1
    31   27   28       2
    32   27   29       1
    33   29   30       2
    34   29   40       1
    35   30   31       1
    36   31   32      ar
    37   31   38      ar
    38   32   33      ar
    39   33   34       1
    40   33   35      ar
    41   35   36       1
    42   35   37      ar
    43   37   38      ar
    44   38   39       1
    45   39   40       1
    46   39   41       1
    47   41   42       1
    48   42   43       1
    49   42   44       1
    50   44   45       1
    51   44   46       1
    52   46   47       1
    53   46   48       1
    54   48   49       1
    55   49   50       1
    56   50   51      ar
    57   50   52      ar
    58   50   53       1
    59   48   84       1
    60    5   54       1
    61    5   55       1
    62    6   56       1
    63    8   57       1
    64    9   58       1
    65   10   59       1
    66   11   60       1
    67   12   61       1
    68   14   62       1
    69   18   63       1
    70   18   64       1
    71   20   65       1
    72   26   66       1
    73   32   67       1
    74   34   68       1
    75   34   69       1
    76   34   70       1
    77   36   71       1
    78   36   72       1
    79   36   73       1
    80   37   74       1
    81   41   75       1
    82   41   76       1
    83   42   77       1
    84   43   78       1
    85   44   79       1
    86   45   80       1
    87   46   81       1
    88   47   82       1
    89   48   83       1
@<TRIPOS>SUBSTRUCTURE
     1 FAD800      1 GROUP             4 A     FAD     0 **** FAD A 800
