@<TRIPOS>MOLECULE
2db3_ANP_1_ligand
   43    45     1     0     0
SMALL
NO_CHARGES


@<TRIPOS>ATOM
     1 PG          40.9060    73.1420    44.9960 P.3          1 ANP2901   0.0000
     2 O1G         41.2540    71.7320    44.5460 O.co2        1 ANP2901   0.0000
     3 O2G         40.9310    73.2680    46.4830 O.co2        1 ANP2901  -1.0000
     4 O3G         39.7440    73.7860    44.3140 O.co2        1 ANP2901  -1.0000
     5 PB          42.5820    74.6920    43.0090 P.3          1 ANP2901   0.0000
     6 O1B         41.3380    74.9650    42.2490 O.co2        1 ANP2901   0.0000
     7 O2B         43.5310    73.8500    42.2560 O.co2        1 ANP2901  -1.0000
     8 N3B         42.0840    74.1790    44.4420 N.3          1 ANP2901  -1.0000
     9 PA          42.7300    77.6620    42.8550 P.3          1 ANP2901   0.0000
    10 O1A         42.2720    77.8320    41.4410 O.co2        1 ANP2901   0.0000
    11 O2A         41.6720    77.9540    43.8730 O.co2        1 ANP2901  -1.0000
    12 O3A         43.2300    76.1800    43.0170 O.3          1 ANP2901   0.0000
    13 O5'         44.1250    78.4040    42.8960 O.3          1 ANP2901   0.0000
    14 C5'         44.7620    78.3590    44.1960 C.3          1 ANP2901   0.0000
    15 C4'         45.1330    79.8080    44.5760 C.3          1 ANP2901   0.0000
    16 O4'         46.3680    80.1280    43.9720 O.3          1 ANP2901   0.0000
    17 C3'         44.3280    80.9190    44.0620 C.3          1 ANP2901   0.0000
    18 O3'         44.5070    81.9770    44.9800 O.3          1 ANP2901   0.0000
    19 C2'         45.0260    81.4570    42.8040 C.3          1 ANP2901   0.0000
    20 O2'         45.0280    82.8410    42.6690 O.3          1 ANP2901   0.0000
    21 C1'         46.4330    81.1180    42.9520 C.3          1 ANP2901   0.0000
    22 N9          47.1880    80.7800    41.6530 N.pl3        1 ANP2901   0.0000
    23 C8          46.7100    80.1350    40.5670 C.2          1 ANP2901   0.0000
    24 N7          47.6440    80.0200    39.6110 N.2          1 ANP2901   0.0000
    25 C5          48.7230    80.6000    40.1110 C.ar         1 ANP2901   0.0000
    26 C6          49.9930    80.7290    39.4800 C.ar         1 ANP2901   0.0000
    27 N6          50.1570    80.2280    38.2340 N.pl3        1 ANP2901   0.0000
    28 N1          51.0080    81.3670    40.1600 N.ar         1 ANP2901   0.0000
    29 C2          50.7070    81.8320    41.4040 C.ar         1 ANP2901   0.0000
    30 N3          49.4950    81.7110    42.0120 N.ar         1 ANP2901   0.0000
    31 C4          48.4690    81.0850    41.3930 C.ar         1 ANP2901   0.0000
    32 H5'1        45.5864    77.7946    44.1537 H            1 ANP2901   0.0000
    33 H5'2        44.1318    77.9784    44.8728 H            1 ANP2901   0.0000
    34 H4'         45.2152    79.8842    45.5697 H            1 ANP2901   0.0000
    35 H3'         43.3686    80.6796    43.9130 H            1 ANP2901   0.0000
    36 H5          43.8091    81.9205    45.6940 H            1 ANP2901   0.0000
    37 H2'         44.6478    81.0270    41.9842 H            1 ANP2901   0.0000
    38 H7          45.0310    83.0812    41.6983 H            1 ANP2901   0.0000
    39 H1'         46.8839    81.9166    43.3506 H            1 ANP2901   0.0000
    40 H9          45.7762    79.7866    40.4857 H            1 ANP2901   0.0000
    41 H10         51.0417    80.3092    37.7749 H            1 ANP2901   0.0000
    42 H11         49.3936    79.7765    37.7721 H            1 ANP2901   0.0000
    43 H12         51.4324    82.2985    41.9101 H            1 ANP2901   0.0000
@<TRIPOS>BOND
     1    1    2      ar
     2    1    3      ar
     3    1    4      ar
     4    1    8       1
     5    5    6      ar
     6    5    7      ar
     7    5    8       1
     8    5   12       1
     9    9   10      ar
    10    9   11      ar
    11    9   12       1
    12    9   13       1
    13   13   14       1
    14   14   15       1
    15   15   16       1
    16   15   17       1
    17   16   21       1
    18   17   18       1
    19   17   19       1
    20   19   20       1
    21   19   21       1
    22   21   22       1
    23   22   23       1
    24   22   31       1
    25   23   24       2
    26   24   25       1
    27   25   26      ar
    28   25   31      ar
    29   26   27       1
    30   26   28      ar
    31   28   29      ar
    32   29   30      ar
    33   30   31      ar
    34   29   43       1
    35   27   42       1
    36   27   41       1
    37   21   39       1
    38   23   40       1
    39   14   32       1
    40   14   33       1
    41   15   34       1
    42   17   35       1
    43   18   36       1
    44   19   37       1
    45   20   38       1
@<TRIPOS>SUBSTRUCTURE
     1 ANP2901     1 GROUP             4 A     ANP     0 **** ANP A2901
