@<TRIPOS>MOLECULE
3kvu_ACO_3_ligand
   45    44     1     0     0
SMALL
NO_CHARGES


@<TRIPOS>ATOM
     1 O6A         19.2840    17.7020    22.1390 O.3          1 ACO202   0.0000
     2 CBP         18.4830    20.0350    22.5640 C.3          1 ACO202   0.0000
     3 CCP         18.9600    18.6810    23.1190 C.3          1 ACO202   0.0000
     4 CDP         17.0280    19.8320    22.1100 C.3          1 ACO202   0.0000
     5 CEP         19.2680    20.4470    21.3010 C.3          1 ACO202   0.0000
     6 CAP         18.6740    21.1470    23.6700 C.3          1 ACO202   0.0000
     7 OAP         19.6040    20.7160    24.6540 O.3          1 ACO202   0.0000
     8 C9P         17.5770    21.5810    24.6210 C.2          1 ACO202   0.0000
     9 O9P         17.1680    20.8990    25.5610 O.2          1 ACO202   0.0000
    10 N8P         17.1160    22.8080    24.4720 N.am         1 ACO202   0.0000
    11 C7P         16.1030    23.3630    25.3130 C.3          1 ACO202   0.0000
    12 C6P         16.4590    23.1720    26.8120 C.3          1 ACO202   0.0000
    13 C5P         16.2540    24.5570    27.4660 C.2          1 ACO202   0.0000
    14 O5P         15.6550    25.4260    26.8310 O.2          1 ACO202   0.0000
    15 N4P         16.6510    25.0290    28.6430 N.am         1 ACO202   0.0000
    16 C3P         16.2770    26.4630    28.8660 C.3          1 ACO202   0.0000
    17 C2P         16.7900    26.8250    30.2570 C.3          1 ACO202   0.0000
    18 S1P         17.4470    28.4700    30.2560 S.3          1 ACO202   0.0000
    19 C           18.6030    28.6240    31.4470 C.2          1 ACO202   0.0000
    20 O           18.3050    29.1350    32.5110 O.2          1 ACO202   0.0000
    21 CH3         19.9440    28.1170    31.1800 C.3          1 ACO202   0.0000
    22 H6A         19.9973    17.0980    22.4944 H            1 ACO202   0.0000
    23 HCP1        19.7759    18.8447    23.6736 H            1 ACO202   0.0000
    24 HCP2        18.2328    18.3106    23.6970 H            1 ACO202   0.0000
    25 HDP1        16.6717    20.6897    21.7394 H            1 ACO202   0.0000
    26 HDP2        16.9947    19.1245    21.4041 H            1 ACO202   0.0000
    27 HDP3        16.4713    19.5497    22.8913 H            1 ACO202   0.0000
    28 HEP1        18.9303    21.3287    20.9715 H            1 ACO202   0.0000
    29 HEP2        20.2400    20.5242    21.5230 H            1 ACO202   0.0000
    30 HEP3        19.1424    19.7551    20.5900 H            1 ACO202   0.0000
    31 HAP         19.0445    21.9643    23.2287 H            1 ACO202   0.0000
    32 H11         19.7130    21.4304    25.3452 H            1 ACO202   0.0000
    33 H8P         17.4919    23.3743    23.7385 H            1 ACO202   0.0000
    34 H7P1        15.2337    22.9070    25.1226 H            1 ACO202   0.0000
    35 H7P2        16.0162    24.3402    25.1193 H            1 ACO202   0.0000
    36 H6P1        17.4092    22.8764    26.9104 H            1 ACO202   0.0000
    37 H6P2        15.8542    22.4948    27.2311 H            1 ACO202   0.0000
    38 H4P         17.1504    24.4811    29.3141 H            1 ACO202   0.0000
    39 H3P1        15.2840    26.5730    28.8232 H            1 ACO202   0.0000
    40 H3P2        16.7069    27.0448    28.1756 H            1 ACO202   0.0000
    41 H2P1        17.5088    26.1822    30.5219 H            1 ACO202   0.0000
    42 H2P2        16.0362    26.7705    30.9118 H            1 ACO202   0.0000
    43 HH31        20.5257    28.2769    31.9775 H            1 ACO202   0.0000
    44 HH32        19.8982    27.1359    30.9922 H            1 ACO202   0.0000
    45 HH33        20.3277    28.5906    30.3872 H            1 ACO202   0.0000
@<TRIPOS>BOND
     1    1    3       1
     2    2    3       1
     3    2    4       1
     4    2    5       1
     5    2    6       1
     6    6    7       1
     7    6    8       1
     8    8    9       2
     9    8   10      am
    10   10   11       1
    11   11   12       1
    12   12   13       1
    13   13   14       2
    14   13   15      am
    15   15   16       1
    16   16   17       1
    17   17   18       1
    18   18   19       1
    19   19   20       2
    20   19   21       1
    21    1   22       1
    22    3   23       1
    23    3   24       1
    24    4   25       1
    25    4   26       1
    26    4   27       1
    27    5   28       1
    28    5   29       1
    29    5   30       1
    30    6   31       1
    31    7   32       1
    32   10   33       1
    33   11   34       1
    34   11   35       1
    35   12   36       1
    36   12   37       1
    37   15   38       1
    38   16   39       1
    39   16   40       1
    40   17   41       1
    41   17   42       1
    42   21   43       1
    43   21   44       1
    44   21   45       1
@<TRIPOS>SUBSTRUCTURE
     1 ACO202      1 GROUP             4 D     ACO     0 **** ACO D 202
