@<TRIPOS>MOLECULE
4ogr_ADN_2_ligand
   32    34     1     0     0
SMALL
NO_CHARGES


@<TRIPOS>ATOM
     1 O5'        105.9410   -30.6800   -21.6500 O.3          1 ADN401   0.0000
     2 C5'        106.3000   -31.8110   -22.4370 C.3          1 ADN401   0.0000
     3 C4'        106.7760   -32.9590   -21.5820 C.3          1 ADN401   0.0000
     4 O4'        106.9100   -32.5060   -20.2050 O.3          1 ADN401   0.0000
     5 C3'        105.8460   -34.1720   -21.5440 C.3          1 ADN401   0.0000
     6 O3'        106.6230   -35.3650   -21.4480 O.3          1 ADN401   0.0000
     7 C2'        105.0720   -33.9630   -20.2470 C.3          1 ADN401   0.0000
     8 O2'        104.5470   -35.1450   -19.6810 O.3          1 ADN401   0.0000
     9 C1'        106.1360   -33.3300   -19.3550 C.3          1 ADN401   0.0000
    10 N9         105.5920   -32.4980   -18.2770 N.pl3        1 ADN401   0.0000
    11 C8         105.5880   -31.2220   -18.3250 C.2          1 ADN401   0.0000
    12 N7         105.0200   -30.7670   -17.1940 N.2          1 ADN401   0.0000
    13 C5         104.6680   -31.8590   -16.4330 C.ar         1 ADN401   0.0000
    14 C6         104.0600   -32.0800   -15.1910 C.ar         1 ADN401   0.0000
    15 N6         103.6310   -30.9570   -14.3690 N.pl3        1 ADN401   0.0000
    16 N1         103.8770   -33.3370   -14.7680 N.ar         1 ADN401   0.0000
    17 C2         104.2640   -34.3770   -15.5120 C.ar         1 ADN401   0.0000
    18 N3         104.8490   -34.2250   -16.7040 N.ar         1 ADN401   0.0000
    19 C4         105.0690   -33.0060   -17.1990 C.ar         1 ADN401   0.0000
    20 H5'        105.6315   -29.9416   -22.2492 H            1 ADN401   0.0000
    21 H5'1       107.0330   -31.5492   -23.0648 H            1 ADN401   0.0000
    22 H5'2       105.5017   -32.1071   -22.9615 H            1 ADN401   0.0000
    23 H4'        107.6732   -33.2533   -21.9113 H            1 ADN401   0.0000
    24 H3'        105.2365   -34.1930   -22.3365 H            1 ADN401   0.0000
    25 H6         106.0144   -36.1581   -21.4232 H            1 ADN401   0.0000
    26 H2'        104.3319   -33.3084   -20.4009 H            1 ADN401   0.0000
    27 H8         104.5035   -35.0477   -18.6867 H            1 ADN401   0.0000
    28 H1'        106.7150   -34.0461   -18.9652 H            1 ADN401   0.0000
    29 H10        105.9443   -30.6602   -19.0717 H            1 ADN401   0.0000
    30 H11        103.1975   -31.1226   -13.4832 H            1 ADN401   0.0000
    31 H12        103.7699   -30.0203   -14.6904 H            1 ADN401   0.0000
    32 H13        104.1105   -35.3021   -15.1646 H            1 ADN401   0.0000
@<TRIPOS>BOND
     1    1    2       1
     2    2    3       1
     3    3    4       1
     4    3    5       1
     5    4    9       1
     6    5    6       1
     7    5    7       1
     8    7    8       1
     9    7    9       1
    10    9   10       1
    11   10   11       1
    12   10   19       1
    13   11   12       2
    14   12   13       1
    15   13   14      ar
    16   13   19      ar
    17   14   15       1
    18   14   16      ar
    19   16   17      ar
    20   17   18      ar
    21   18   19      ar
    22    1   20       1
    23    2   21       1
    24    2   22       1
    25    3   23       1
    26    5   24       1
    27    6   25       1
    28    7   26       1
    29    8   27       1
    30    9   28       1
    31   11   29       1
    32   15   30       1
    33   15   31       1
    34   17   32       1
@<TRIPOS>SUBSTRUCTURE
     1 ADN401      1 GROUP             4 E     ADN     0 **** ADN E 401
