@<TRIPOS>MOLECULE
2vdy_HCY_1_ligand
   56    59     1     0     0
SMALL
NO_CHARGES


@<TRIPOS>ATOM
     1 C1          -9.6290     0.9370   -36.5730 C.3          1 HCY1384   0.0000
     2 C2         -10.5000     0.4810   -35.4020 C.3          1 HCY1384   0.0000
     3 C3         -11.2740     1.6590   -34.8570 C.2          1 HCY1384   0.0000
     4 C4         -11.4550     2.8660   -35.6910 C.2          1 HCY1384   0.0000
     5 C5         -11.2050     2.8430   -37.0130 C.2          1 HCY1384   0.0000
     6 C6         -11.7910     3.9430   -37.8730 C.3          1 HCY1384   0.0000
     7 C7         -10.7230     4.5390   -38.7900 C.3          1 HCY1384   0.0000
     8 C8          -9.8650     3.4940   -39.5120 C.3          1 HCY1384   0.0000
     9 C9          -9.2920     2.4310   -38.5440 C.3          1 HCY1384   0.0000
    10 C10        -10.3610     1.7510   -37.6520 C.3          1 HCY1384   0.0000
    11 C12         -7.2040     2.2150   -40.0760 C.3          1 HCY1384   0.0000
    12 C11         -8.2520     1.4860   -39.2110 C.3          1 HCY1384   0.0000
    13 C13         -7.8170     3.2280   -41.0550 C.3          1 HCY1384   0.0000
    14 C14         -8.6860     4.1710   -40.2300 C.3          1 HCY1384   0.0000
    15 C15         -8.9350     5.3750   -41.1370 C.3          1 HCY1384   0.0000
    16 C16         -7.6650     5.4530   -41.9910 C.3          1 HCY1384   0.0000
    17 C17         -6.8150     4.2160   -41.6680 C.3          1 HCY1384   0.0000
    18 C18         -8.5860     2.4690   -42.1480 C.3          1 HCY1384   0.0000
    19 C19        -11.3080     0.8120   -38.4090 C.3          1 HCY1384   0.0000
    20 C20         -6.0760     3.6930   -42.8900 C.2          1 HCY1384   0.0000
    21 C21         -4.9620     2.6760   -42.7310 C.3          1 HCY1384   0.0000
    22 O1         -11.7460     1.6100   -33.7330 O.2          1 HCY1384   0.0000
    23 O2          -8.8760     0.4660   -40.0030 O.3          1 HCY1384   0.0000
    24 O3          -5.8460     4.6330   -40.6940 O.3          1 HCY1384   0.0000
    25 O4          -6.3650     4.0870   -44.0120 O.2          1 HCY1384   0.0000
    26 O5          -3.8810     2.9710   -43.6200 O.3          1 HCY1384   0.0000
    27 H1          -9.2432     0.1231   -37.0074 H            1 HCY1384   0.0000
    28 H2          -8.8893     1.5020   -36.2073 H            1 HCY1384   0.0000
    29 H3          -9.9181     0.1032   -34.6818 H            1 HCY1384   0.0000
    30 H4         -11.1394    -0.2207   -35.7163 H            1 HCY1384   0.0000
    31 H5         -11.7688     3.7147   -35.2652 H            1 HCY1384   0.0000
    32 H6         -12.1552     4.6629   -37.2821 H            1 HCY1384   0.0000
    33 H7         -12.5293     3.5649   -38.4315 H            1 HCY1384   0.0000
    34 H8         -10.1194     5.1135   -38.2372 H            1 HCY1384   0.0000
    35 H9         -11.1793     5.1015   -39.4795 H            1 HCY1384   0.0000
    36 H10        -10.4316     3.0320   -40.1943 H            1 HCY1384   0.0000
    37 H11         -8.7478     2.9660   -37.8978 H            1 HCY1384   0.0000
    38 H12         -6.6975     1.5322   -40.6026 H            1 HCY1384   0.0000
    39 H13         -6.5754     2.7014   -39.4692 H            1 HCY1384   0.0000
    40 H14         -7.7571     1.0255   -38.4741 H            1 HCY1384   0.0000
    41 H15         -8.0910     4.5083   -39.5005 H            1 HCY1384   0.0000
    42 H16         -9.0546     6.2090   -40.5983 H            1 HCY1384   0.0000
    43 H17         -9.7418     5.2296   -41.7097 H            1 HCY1384   0.0000
    44 H18         -7.1555     6.2846   -41.7700 H            1 HCY1384   0.0000
    45 H19         -7.9059     5.4578   -42.9615 H            1 HCY1384   0.0000
    46 H20         -8.9875     3.1235   -42.7887 H            1 HCY1384   0.0000
    47 H21         -7.9583     1.8645   -42.6386 H            1 HCY1384   0.0000
    48 H22         -9.3125     1.9252   -41.7279 H            1 HCY1384   0.0000
    49 H23        -11.7930     1.3267   -39.1160 H            1 HCY1384   0.0000
    50 H24        -10.7793     0.0777   -38.8348 H            1 HCY1384   0.0000
    51 H25        -11.9692     0.4193   -37.7699 H            1 HCY1384   0.0000
    52 H26         -5.3174     1.7642   -42.9368 H            1 HCY1384   0.0000
    53 H27         -4.6282     2.6987   -41.7886 H            1 HCY1384   0.0000
    54 H28         -8.6238    -0.4337   -39.6467 H            1 HCY1384   0.0000
    55 H29         -5.2051     5.2749   -41.1150 H            1 HCY1384   0.0000
    56 H30         -3.1570     2.2914   -43.5015 H            1 HCY1384   0.0000
@<TRIPOS>BOND
     1    1    2       1
     2    1   10       1
     3    2    3       1
     4    3    4       1
     5    3   22       2
     6    4    5       2
     7    5    6       1
     8    5   10       1
     9    6    7       1
    10    7    8       1
    11    8    9       1
    12    8   14       1
    13    9   10       1
    14    9   12       1
    15   10   19       1
    16   11   12       1
    17   11   13       1
    18   12   23       1
    19   13   14       1
    20   13   17       1
    21   13   18       1
    22   14   15       1
    23   15   16       1
    24   16   17       1
    25   17   20       1
    26   17   24       1
    27   20   21       1
    28   20   25       2
    29   21   26       1
    30    1   27       1
    31    1   28       1
    32    2   29       1
    33    2   30       1
    34    4   31       1
    35    6   32       1
    36    6   33       1
    37    7   34       1
    38    7   35       1
    39    8   36       1
    40    9   37       1
    41   11   38       1
    42   11   39       1
    43   12   40       1
    44   14   41       1
    45   15   42       1
    46   15   43       1
    47   16   44       1
    48   16   45       1
    49   18   46       1
    50   18   47       1
    51   18   48       1
    52   19   49       1
    53   19   50       1
    54   19   51       1
    55   21   52       1
    56   21   53       1
    57   23   54       1
    58   24   55       1
    59   26   56       1
@<TRIPOS>SUBSTRUCTURE
     1 HCY1384     1 GROUP             4 A     HCY     0 **** HCY A1384
