@<TRIPOS>MOLECULE
1qf2_TI3_1_ligand
   51    53     1     0     0
SMALL
NO_CHARGES


@<TRIPOS>ATOM
     1 SG          36.1630    42.4450    -6.1130 S.3          1 TI3317  -1.0000
     2 CA1         36.8570    42.4760    -4.3810 C.3          1 TI3317   0.0000
     3 CB1         35.7910    42.4910    -3.2890 C.3          1 TI3317   0.0000
     4 CG1         36.3600    42.5880    -1.8980 C.ar         1 TI3317   0.0000
     5 CD1         37.0910    43.7140    -1.5100 C.ar         1 TI3317   0.0000
     6 CD2         36.1980    41.5450    -0.9900 C.ar         1 TI3317   0.0000
     7 CE1         37.6510    43.7920    -0.2420 C.ar         1 TI3317   0.0000
     8 CE2         36.7550    41.6130     0.2810 C.ar         1 TI3317   0.0000
     9 CZ1         37.4820    42.7320     0.6580 C.ar         1 TI3317   0.0000
    10 C1          37.8660    41.3970    -4.0130 C.2          1 TI3317   0.0000
    11 O1          39.0490    41.6790    -3.8340 O.2          1 TI3317   0.0000
    12 N2          37.3580    40.1930    -3.7970 N.am         1 TI3317   0.0000
    13 CA2         38.2040    39.0630    -3.4860 C.3          1 TI3317   0.0000
    14 C2          38.2310    38.2730    -4.7800 C.2          1 TI3317   0.0000
    15 O2          37.3010    38.3880    -5.5820 O.2          1 TI3317   0.0000
    16 N3          39.2610    37.4550    -5.0190 N.am         1 TI3317   0.0000
    17 CD3         40.3860    37.0580    -4.1410 C.3          1 TI3317   0.0000
    18 CA3         39.2670    36.7060    -6.2840 C.3          1 TI3317   0.0000
    19 CB3         40.7070    36.2070    -6.3690 C.3          1 TI3317   0.0000
    20 CG3         41.0540    35.9540    -4.9460 C.3          1 TI3317   0.0000
    21 CG4         40.0020    36.5450    -2.7660 C.ar         1 TI3317   0.0000
    22 CD5         38.7600    35.9420    -2.5460 C.ar         1 TI3317   0.0000
    23 CD4         40.9070    36.6040    -1.7130 C.ar         1 TI3317   0.0000
    24 CE5         38.4290    35.4090    -1.3070 C.ar         1 TI3317   0.0000
    25 CE4         40.5880    36.0710    -0.4680 C.ar         1 TI3317   0.0000
    26 CZ3         39.3480    35.4720    -0.2650 C.ar         1 TI3317   0.0000
    27 C3          38.2320    35.5680    -6.3930 C.2          1 TI3317   0.0000
    28 O3          37.8780    34.9710    -5.3490 O.co2        1 TI3317   0.0000
    29 OXT         37.7500    35.3150    -7.5250 O.co2        1 TI3317  -1.0000
    30 HA1         37.3446    43.3451    -4.2981 H            1 TI3317   0.0000
    31 HB11        35.2578    41.6476    -3.3551 H            1 TI3317   0.0000
    32 HB12        35.1919    43.2770    -3.4418 H            1 TI3317   0.0000
    33 HD1         37.2119    44.4711    -2.1520 H            1 TI3317   0.0000
    34 HD2         35.6737    40.7361    -1.2562 H            1 TI3317   0.0000
    35 HE1         38.1727    44.6014     0.0276 H            1 TI3317   0.0000
    36 HE2         36.6318    40.8562     0.9229 H            1 TI3317   0.0000
    37 HZ1         37.8853    42.7822     1.5717 H            1 TI3317   0.0000
    38 H9          36.3679    40.0630    -3.8502 H            1 TI3317   0.0000
    39 HA21        37.8143    38.5187    -2.7431 H            1 TI3317   0.0000
    40 HA22        39.1231    39.3640    -3.2319 H            1 TI3317   0.0000
    41 HD3         41.0182    37.8267    -4.0437 H            1 TI3317   0.0000
    42 HA3         39.1102    37.3493    -7.0334 H            1 TI3317   0.0000
    43 HB31        41.3058    36.9017    -6.7675 H            1 TI3317   0.0000
    44 HB32        40.7657    35.3671    -6.9086 H            1 TI3317   0.0000
    45 HG31        40.7100    35.0599    -4.6594 H            1 TI3317   0.0000
    46 HG32        42.0456    35.9855    -4.8205 H            1 TI3317   0.0000
    47 HD5         38.0982    35.8936    -3.2941 H            1 TI3317   0.0000
    48 HD4         41.7986    37.0349    -1.8518 H            1 TI3317   0.0000
    49 HE5         37.5356    34.9827    -1.1650 H            1 TI3317   0.0000
    50 HE4         41.2493    36.1182     0.2807 H            1 TI3317   0.0000
    51 HZ3         39.1182    35.0874     0.6290 H            1 TI3317   0.0000
@<TRIPOS>BOND
     1    1    2       1
     2    2    3       1
     3    2   10       1
     4    3    4       1
     5    4    5      ar
     6    4    6      ar
     7    5    7      ar
     8    6    8      ar
     9    7    9      ar
    10    8    9      ar
    11   10   11       2
    12   10   12      am
    13   12   13       1
    14   13   14       1
    15   14   15       2
    16   14   16      am
    17   16   17       1
    18   16   18       1
    19   17   20       1
    20   17   21       1
    21   18   19       1
    22   18   27       1
    23   19   20       1
    24   21   22      ar
    25   21   23      ar
    26   22   24      ar
    27   23   25      ar
    28   24   26      ar
    29   25   26      ar
    30   27   28      ar
    31   27   29      ar
    32   26   51       1
    33    2   30       1
    34    3   31       1
    35    3   32       1
    36    5   33       1
    37    6   34       1
    38    7   35       1
    39    8   36       1
    40    9   37       1
    41   12   38       1
    42   13   39       1
    43   13   40       1
    44   17   41       1
    45   18   42       1
    46   19   43       1
    47   19   44       1
    48   20   45       1
    49   20   46       1
    50   22   47       1
    51   23   48       1
    52   24   49       1
    53   25   50       1
@<TRIPOS>SUBSTRUCTURE
     1 TI3317      1 GROUP             4 A     TI3     0 **** TI3 A 317
