@<TRIPOS>MOLECULE
3lm9_ADP_1_ligand
   39    41     1     0     0
SMALL
NO_CHARGES


@<TRIPOS>ATOM
     1 PB          45.7320   -33.9400   -19.4020 P.3          1 ADP3001   0.0000
     2 O1B         44.2500   -34.2180   -19.6770 O.co2        1 ADP3001   0.0000
     3 O2B         46.2620   -32.6150   -20.0160 O.co2        1 ADP3001  -1.0000
     4 O3B         46.7040   -35.0940   -19.7130 O.co2        1 ADP3001  -1.0000
     5 PA          44.7420   -33.8190   -16.5970 P.3          1 ADP3001   0.0000
     6 O1A         45.4050   -33.2330   -15.3590 O.co2        1 ADP3001   0.0000
     7 O2A         44.2170   -35.2450   -16.4820 O.co2        1 ADP3001  -1.0000
     8 O3A         45.8220   -33.7240   -17.7900 O.3          1 ADP3001   0.0000
     9 O5'         43.6740   -32.6800   -17.0210 O.3          1 ADP3001   0.0000
    10 C5'         43.9110   -31.2670   -16.9080 C.3          1 ADP3001   0.0000
    11 C4'         42.6290   -30.4120   -16.7300 C.3          1 ADP3001   0.0000
    12 O4'         42.1460   -30.5970   -15.3860 O.3          1 ADP3001   0.0000
    13 C3'         42.8570   -28.8780   -16.9560 C.3          1 ADP3001   0.0000
    14 O3'         41.8360   -28.1920   -17.7090 O.3          1 ADP3001   0.0000
    15 C2'         42.9670   -28.2900   -15.5410 C.3          1 ADP3001   0.0000
    16 O2'         42.3920   -26.9870   -15.3430 O.3          1 ADP3001   0.0000
    17 C1'         42.2490   -29.3360   -14.6610 C.3          1 ADP3001   0.0000
    18 N9          42.9690   -29.5830   -13.3830 N.pl3        1 ADP3001   0.0000
    19 C8          44.2790   -29.9090   -13.1800 C.2          1 ADP3001   0.0000
    20 N7          44.5180   -30.0960   -11.8600 N.2          1 ADP3001   0.0000
    21 C5          43.3430   -29.8800   -11.2320 C.ar         1 ADP3001   0.0000
    22 C6          42.8440   -29.9030    -9.8410 C.ar         1 ADP3001   0.0000
    23 N6          43.7080   -30.1930    -8.8410 N.pl3        1 ADP3001   0.0000
    24 N1          41.5220   -29.6290    -9.6070 N.ar         1 ADP3001   0.0000
    25 C2          40.6510   -29.3370   -10.6140 C.ar         1 ADP3001   0.0000
    26 N3          41.0440   -29.2910   -11.8950 N.ar         1 ADP3001   0.0000
    27 C4          42.3330   -29.5430   -12.2370 C.ar         1 ADP3001   0.0000
    28 H5'1        44.3776   -30.9612   -17.7379 H            1 ADP3001   0.0000
    29 H5'2        44.5023   -31.1118   -16.1167 H            1 ADP3001   0.0000
    30 H4'         41.9330   -30.7341   -17.3717 H            1 ADP3001   0.0000
    31 H3'         43.7332   -28.7523   -17.4212 H            1 ADP3001   0.0000
    32 H5          42.0640   -28.2202   -18.6823 H            1 ADP3001   0.0000
    33 H2'         43.9319   -28.2585   -15.2802 H            1 ADP3001   0.0000
    34 H7          41.9960   -26.6633   -16.2023 H            1 ADP3001   0.0000
    35 H1'         41.3279   -29.0063   -14.4541 H            1 ADP3001   0.0000
    36 H9          44.9644   -29.9972   -13.9028 H            1 ADP3001   0.0000
    37 H10         43.3880   -30.2131    -7.8938 H            1 ADP3001   0.0000
    38 H11         44.6666   -30.3873    -9.0491 H            1 ADP3001   0.0000
    39 H12         39.6937   -29.1522   -10.3915 H            1 ADP3001   0.0000
@<TRIPOS>BOND
     1    1    2      ar
     2    1    3      ar
     3    1    4      ar
     4    1    8       1
     5    5    6      ar
     6    5    7      ar
     7    5    8       1
     8    5    9       1
     9    9   10       1
    10   10   11       1
    11   11   12       1
    12   11   13       1
    13   12   17       1
    14   13   14       1
    15   13   15       1
    16   15   16       1
    17   15   17       1
    18   17   18       1
    19   18   19       1
    20   18   27       1
    21   19   20       2
    22   20   21       1
    23   21   22      ar
    24   21   27      ar
    25   22   23       1
    26   22   24      ar
    27   24   25      ar
    28   25   26      ar
    29   26   27      ar
    30   25   39       1
    31   23   38       1
    32   23   37       1
    33   10   28       1
    34   10   29       1
    35   11   30       1
    36   13   31       1
    37   14   32       1
    38   15   33       1
    39   16   34       1
    40   17   35       1
    41   19   36       1
@<TRIPOS>SUBSTRUCTURE
     1 ADP3001     1 GROUP             4 A     ADP     0 **** ADP A3001
