@<TRIPOS>MOLECULE
3knz_IMD_1_ligand
    9     9     1     0     0
SMALL
NO_CHARGES


@<TRIPOS>ATOM
     1 N1          60.3880    19.8230   168.9230 N.2          1 IMD349   0.0000
     2 C2          60.9760    19.8210   170.1430 C.2          1 IMD349   0.0000
     3 N3          61.7240    20.9440   170.2760 N.pl3        1 IMD349   0.0000
     4 C4          61.6050    21.6530   169.1370 C.2          1 IMD349   0.0000
     5 C5          60.7640    20.9490   168.2830 C.2          1 IMD349   0.0000
     6 H1          60.8747    19.1060   170.8347 H            1 IMD349   0.0000
     7 H2          62.0437    22.5299   168.9406 H            1 IMD349   0.0000
     8 H3          60.4883    21.2266   167.3627 H            1 IMD349   0.0000
     9 H4          62.2666    21.1999   171.0761 H            1 IMD349   0.0000
@<TRIPOS>BOND
     1    1    2       2
     2    1    5       1
     3    2    3       1
     4    3    4       1
     5    4    5       2
     6    5    8       1
     7    2    6       1
     8    4    7       1
     9    3    9       1
@<TRIPOS>SUBSTRUCTURE
     1 IMD349      1 GROUP             4 A     IMD     0 **** IMD A 349
