@<TRIPOS>MOLECULE
3vln_ASC_1_ligand
   18    18     1     0     0
SMALL
NO_CHARGES


@<TRIPOS>ATOM
     1 C1          13.8410    -9.4600    16.1420 C.2          1 ASC904   0.0000
     2 C2          14.8560    -9.6630    15.1330 C.2          1 ASC904   0.0000
     3 C3          15.1490   -10.9230    15.2410 C.2          1 ASC904   0.0000
     4 C4          14.2420   -11.6520    16.1990 C.3          1 ASC904   0.0000
     5 C5          14.8450   -12.9880    16.6620 C.3          1 ASC904   0.0000
     6 C6          15.2830   -13.2010    18.1140 C.3          1 ASC904   0.0000
     7 O1          13.1400    -8.4660    16.2640 O.2          1 ASC904   0.0000
     8 O2          15.3960    -8.8120    14.2700 O.2          1 ASC904   0.0000
     9 O3          16.0420   -11.4970    14.5510 O.2          1 ASC904   0.0000
    10 O4          13.7670   -10.6140    17.0340 O.3          1 ASC904   0.0000
    11 O5          15.9340   -13.3290    15.7250 O.3          1 ASC904   0.0000
    12 O6          14.7980   -14.2890    18.8900 O.3          1 ASC904   0.0000
    13 H1          13.4501   -11.9120    15.6465 H            1 ASC904   0.0000
    14 H2          14.1324   -13.6702    16.4983 H            1 ASC904   0.0000
    15 H3          15.0312   -12.3690    18.6084 H            1 ASC904   0.0000
    16 H4          16.2789   -13.2900    18.0969 H            1 ASC904   0.0000
    17 H5          16.6264   -12.6077    15.7419 H            1 ASC904   0.0000
    18 H6          14.1680   -14.8366    18.3392 H            1 ASC904   0.0000
@<TRIPOS>BOND
     1    1    2       1
     2    1    7       2
     3    1   10       1
     4    2    3       1
     5    2    8       2
     6    3    4       1
     7    3    9       2
     8    4    5       1
     9    4   10       1
    10    5    6       1
    11    5   11       1
    12    6   12       1
    13    4   13       1
    14    5   14       1
    15    6   15       1
    16    6   16       1
    17   11   17       1
    18   12   18       1
@<TRIPOS>SUBSTRUCTURE
     1 ASC904      1 GROUP             4 A     ASC     0 **** ASC A 904
