@<TRIPOS>MOLECULE
1h72_ANP_1_ligand
   44    46     1     0     0
SMALL
NO_CHARGES


@<TRIPOS>ATOM
     1 PG          58.8470    42.7090    18.1900 P.3          1 ANP1301   0.0000
     2 O1G         59.6460    43.4870    19.2090 O.co2        1 ANP1301   0.0000
     3 O2G         57.7090    43.4950    17.5530 O.co2        1 ANP1301  -1.0000
     4 O3G         59.7400    42.0820    17.1170 O.co2        1 ANP1301  -1.0000
     5 PB          58.4370    39.7400    19.0640 P.3          1 ANP1301   0.0000
     6 O1B         58.1480    39.3270    17.6640 O.co2        1 ANP1301   0.0000
     7 O2B         57.8070    38.8430    20.0430 O.co2        1 ANP1301  -1.0000
     8 N3B         58.0890    41.3630    19.0540 N.3          1 ANP1301   0.0000
     9 PA          61.2500    39.4430    19.9500 P.3          1 ANP1301   0.0000
    10 O1A         62.1480    40.4100    19.2200 O.co2        1 ANP1301   0.0000
    11 O2A         60.9680    39.9090    21.3630 O.co2        1 ANP1301  -1.0000
    12 O3A         59.9960    39.4120    19.0770 O.3          1 ANP1301   0.0000
    13 O5'         61.6410    37.8280    19.7940 O.3          1 ANP1301   0.0000
    14 C5'         60.7230    37.0200    20.5500 C.3          1 ANP1301   0.0000
    15 C4'         60.9410    35.4630    20.4790 C.3          1 ANP1301   0.0000
    16 O4'         62.2660    34.9850    20.1200 O.3          1 ANP1301   0.0000
    17 C3'         60.7650    34.6910    21.7510 C.3          1 ANP1301   0.0000
    18 O3'         60.3340    33.4340    21.3050 O.3          1 ANP1301   0.0000
    19 C2'         62.1840    34.5560    22.3180 C.3          1 ANP1301   0.0000
    20 O2'         62.4590    33.5850    23.2750 O.3          1 ANP1301   0.0000
    21 C1'         63.0550    34.3330    21.1590 C.3          1 ANP1301   0.0000
    22 N9          64.4920    34.7390    21.3530 N.pl3        1 ANP1301   0.0000
    23 C8          65.5600    33.9310    21.0920 C.2          1 ANP1301   0.0000
    24 N7          66.7120    34.5510    21.3370 N.2          1 ANP1301   0.0000
    25 C5          66.3620    35.7920    21.7550 C.ar         1 ANP1301   0.0000
    26 C6          67.1950    36.8900    22.1620 C.ar         1 ANP1301   0.0000
    27 N6          68.5350    36.7540    22.1620 N.pl3        1 ANP1301   0.0000
    28 N1          66.5970    38.0730    22.5520 N.ar         1 ANP1301   0.0000
    29 C2          65.2230    38.1440    22.5380 C.ar         1 ANP1301   0.0000
    30 N3          64.4380    37.1210    22.1700 N.ar         1 ANP1301   0.0000
    31 C4          64.9570    35.9280    21.7580 C.ar         1 ANP1301   0.0000
    32 H3B         57.1327    41.4008    18.7640 H            1 ANP1301   0.0000
    33 H5'1        59.8006    37.2138    20.2160 H            1 ANP1301   0.0000
    34 H5'2        60.7947    37.2941    21.5090 H            1 ANP1301   0.0000
    35 H4'         60.2947    35.0964    19.8098 H            1 ANP1301   0.0000
    36 H3'         60.1263    35.1227    22.3880 H            1 ANP1301   0.0000
    37 H6          60.1857    32.8342    22.0913 H            1 ANP1301   0.0000
    38 H2'         62.4328    35.4410    22.7116 H            1 ANP1301   0.0000
    39 H8          63.4108    33.2909    23.1876 H            1 ANP1301   0.0000
    40 H1'         63.0471    33.3518    20.9661 H            1 ANP1301   0.0000
    41 H10         65.4865    32.9911    20.7585 H            1 ANP1301   0.0000
    42 H11         69.1151    37.5178    22.4451 H            1 ANP1301   0.0000
    43 H12         68.9498    35.8893    21.8789 H            1 ANP1301   0.0000
    44 H13         64.7884    39.0007    22.8159 H            1 ANP1301   0.0000
@<TRIPOS>BOND
     1    1    2      ar
     2    1    3      ar
     3    1    4      ar
     4    1    8       1
     5    5    6      ar
     6    5    7      ar
     7    5    8       1
     8    5   12       1
     9    9   10      ar
    10    9   11      ar
    11    9   12       1
    12    9   13       1
    13   13   14       1
    14   14   15       1
    15   15   16       1
    16   15   17       1
    17   16   21       1
    18   17   18       1
    19   17   19       1
    20   19   20       1
    21   19   21       1
    22   21   22       1
    23   22   23       1
    24   22   31       1
    25   23   24       2
    26   24   25       1
    27   25   26      ar
    28   25   31      ar
    29   26   27       1
    30   26   28      ar
    31   28   29      ar
    32   29   30      ar
    33   30   31      ar
    34   29   44       1
    35   27   43       1
    36   27   42       1
    37    8   32       1
    38   23   41       1
    39   14   33       1
    40   14   34       1
    41   15   35       1
    42   17   36       1
    43   18   37       1
    44   19   38       1
    45   20   39       1
    46   21   40       1
@<TRIPOS>SUBSTRUCTURE
     1 ANP1301     1 GROUP             4 C     ANP     0 **** ANP C1301
