@<TRIPOS>MOLECULE
4xqc_NAD_4_ligand
   70    74     1     0     0
SMALL
NO_CHARGES


@<TRIPOS>ATOM
     1 PA          14.5450    23.7480    -9.0810 P.3          1 NAD501   0.0000
     2 O1A         14.1690    22.8650    -7.9120 O.co2        1 NAD501   0.0000
     3 O2A         13.9120    25.0720    -9.3120 O.co2        1 NAD501  -1.0000
     4 O5B         14.3950    22.8950   -10.4500 O.3          1 NAD501   0.0000
     5 C5B         14.8610    21.5690   -10.5490 C.3          1 NAD501   0.0000
     6 C4B         14.2550    21.0250   -11.8350 C.3          1 NAD501   0.0000
     7 O4B         14.7600    19.7040   -12.0450 O.3          1 NAD501   0.0000
     8 C3B         12.7250    20.9350   -11.7400 C.3          1 NAD501   0.0000
     9 O3B         12.1090    21.6660   -12.8120 O.3          1 NAD501   0.0000
    10 C2B         12.4510    19.4390   -11.7830 C.3          1 NAD501   0.0000
    11 O2B         11.2010    19.0240   -12.3550 O.3          1 NAD501   0.0000
    12 C1B         13.6630    18.9470   -12.5500 C.3          1 NAD501   0.0000
    13 N9A         13.9170    17.5340   -12.3730 N.pl3        1 NAD501   0.0000
    14 C8A         13.6310    16.7760   -11.2950 C.2          1 NAD501   0.0000
    15 N7A         14.0100    15.5060   -11.5130 N.2          1 NAD501   0.0000
    16 C5A         14.5200    15.4720   -12.7510 C.ar         1 NAD501   0.0000
    17 C6A         15.1030    14.4510   -13.5810 C.ar         1 NAD501   0.0000
    18 N6A         15.1770    13.2170   -13.1020 N.pl3        1 NAD501   0.0000
    19 N1A         15.5030    14.7880   -14.8180 N.ar         1 NAD501   0.0000
    20 C2A         15.4040    16.0330   -15.2770 C.ar         1 NAD501   0.0000
    21 N3A         14.9090    17.0420   -14.5610 N.ar         1 NAD501   0.0000
    22 C4A         14.4640    16.7970   -13.3070 C.ar         1 NAD501   0.0000
    23 O3          16.1400    23.9290    -8.9490 O.3          1 NAD501   0.0000
    24 PN          17.0410    25.1420    -9.5070 P.3          1 NAD501   0.0000
    25 O1N         16.7780    25.4030   -10.9910 O.co2        1 NAD501   0.0000
    26 O2N         16.9460    26.2950    -8.5530 O.co2        1 NAD501  -1.0000
    27 O5D         18.4870    24.4650    -9.3440 O.3          1 NAD501   0.0000
    28 C5D         18.9000    23.5430   -10.3690 C.3          1 NAD501   0.0000
    29 C4D         20.1810    22.8350    -9.9540 C.3          1 NAD501   0.0000
    30 O4D         21.1940    23.8270    -9.8530 O.3          1 NAD501   0.0000
    31 C3D         20.0500    22.1600    -8.6050 C.3          1 NAD501   0.0000
    32 O3D         20.7390    20.9220    -8.5950 O.3          1 NAD501   0.0000
    33 C2D         20.7580    23.1050    -7.6560 C.3          1 NAD501   0.0000
    34 O2D         21.3940    22.4860    -6.5390 O.3          1 NAD501   0.0000
    35 C1D         21.8010    23.7500    -8.5700 C.3          1 NAD501   0.0000
    36 N1N         22.1710    25.1120    -8.2110 N.ar         1 NAD501   1.0000
    37 C2N         23.4730    25.4620    -8.1570 C.ar         1 NAD501   0.0000
    38 C3N         23.8390    26.7550    -7.8290 C.ar         1 NAD501   0.0000
    39 C7N         25.2680    27.2340    -7.7970 C.2          1 NAD501   0.0000
    40 O7N         25.4960    28.4130    -7.6030 O.2          1 NAD501   0.0000
    41 N7N         26.2630    26.4070    -8.0850 N.am         1 NAD501   0.0000
    42 C4N         22.8410    27.6830    -7.5270 C.ar         1 NAD501   0.0000
    43 C5N         21.5170    27.3040    -7.6250 C.ar         1 NAD501   0.0000
    44 C6N         21.2180    26.0070    -7.9910 C.ar         1 NAD501   0.0000
    45 H5B1        14.5560    21.0310    -9.7632 H            1 NAD501   0.0000
    46 H5B2        15.8597    21.5514   -10.5976 H            1 NAD501   0.0000
    47 H4B         14.5118    21.6109   -12.6036 H            1 NAD501   0.0000
    48 H3B         12.4211    21.3065   -10.8627 H            1 NAD501   0.0000
    49 H5          12.4025    21.2835   -13.6881 H            1 NAD501   0.0000
    50 H2B         12.5035    19.0828   -10.8501 H            1 NAD501   0.0000
    51 H7          11.1490    19.3351   -13.3040 H            1 NAD501   0.0000
    52 H1B         13.5431    19.1439   -13.5231 H            1 NAD501   0.0000
    53 H8A         13.2002    17.1102   -10.4567 H            1 NAD501   0.0000
    54 H6A1        15.5774    12.4882   -13.6575 H            1 NAD501   0.0000
    55 H6A2        14.8324    13.0150   -12.1852 H            1 NAD501   0.0000
    56 H2A         15.7174    16.2213   -16.2078 H            1 NAD501   0.0000
    57 H5D1        19.0603    24.0445   -11.2192 H            1 NAD501   0.0000
    58 H5D2        18.1795    22.8647   -10.5129 H            1 NAD501   0.0000
    59 H4D         20.4352    22.1605   -10.6471 H            1 NAD501   0.0000
    60 H3D         19.0901    22.0425    -8.3503 H            1 NAD501   0.0000
    61 H17         20.3546    20.3209    -9.2956 H            1 NAD501   0.0000
    62 H2D         20.1165    23.8013    -7.3342 H            1 NAD501   0.0000
    63 H19         20.7495    22.4318    -5.7763 H            1 NAD501   0.0000
    64 H1D         22.6181    23.1751    -8.6135 H            1 NAD501   0.0000
    65 H2N         24.1785    24.7817    -8.3556 H            1 NAD501   0.0000
    66 H7N1        27.2077    26.7340    -8.0611 H            1 NAD501   0.0000
    67 H7N2        26.0689    25.4561    -8.3262 H            1 NAD501   0.0000
    68 H4N         23.0821    28.6111    -7.2431 H            1 NAD501   0.0000
    69 H5N         20.7859    27.9590    -7.4338 H            1 NAD501   0.0000
    70 H6N         20.2607    25.7363    -8.0925 H            1 NAD501   0.0000
@<TRIPOS>BOND
     1    1    2      ar
     2    1    3      ar
     3    1    4       1
     4    1   23       1
     5    4    5       1
     6    5    6       1
     7    6    7       1
     8    6    8       1
     9    7   12       1
    10    8    9       1
    11    8   10       1
    12   10   11       1
    13   10   12       1
    14   12   13       1
    15   13   14       1
    16   13   22       1
    17   14   15       2
    18   15   16       1
    19   16   17      ar
    20   16   22      ar
    21   17   18       1
    22   17   19      ar
    23   19   20      ar
    24   20   21      ar
    25   21   22      ar
    26   23   24       1
    27   24   25      ar
    28   24   26      ar
    29   24   27       1
    30   27   28       1
    31   28   29       1
    32   29   30       1
    33   29   31       1
    34   30   35       1
    35   31   32       1
    36   31   33       1
    37   33   34       1
    38   33   35       1
    39   35   36       1
    40   36   37      ar
    41   36   44      ar
    42   37   38      ar
    43   38   39       1
    44   38   42      ar
    45   39   40       2
    46   39   41      am
    47   42   43      ar
    48   43   44      ar
    49   44   70       1
    50    5   45       1
    51    5   46       1
    52    6   47       1
    53    8   48       1
    54    9   49       1
    55   10   50       1
    56   11   51       1
    57   12   52       1
    58   14   53       1
    59   18   54       1
    60   18   55       1
    61   20   56       1
    62   43   69       1
    63   28   57       1
    64   28   58       1
    65   29   59       1
    66   31   60       1
    67   32   61       1
    68   33   62       1
    69   34   63       1
    70   35   64       1
    71   37   65       1
    72   41   66       1
    73   41   67       1
    74   42   68       1
@<TRIPOS>SUBSTRUCTURE
     1 NAD501      1 GROUP             4 B     NAD     0 **** NAD B 501
