@<TRIPOS>MOLECULE
4s1b_2BA_2_ligand
   68    74     1     0     0
SMALL
NO_CHARGES


@<TRIPOS>ATOM
     1 P           43.5840    -9.9280     3.3140 P.3          1 2BA803   0.0000
     2 O1P         42.7480   -10.3870     4.4760 O.3          1 2BA803   0.0000
     3 O2P         43.7130   -10.8120     2.0820 O.2          1 2BA803   0.0000
     4 O5'         45.0710    -9.6420     3.8650 O.3          1 2BA803   0.0000
     5 C5'         46.1240    -9.3760     2.9420 C.3          1 2BA803   0.0000
     6 C4'         47.3820    -9.1420     3.7470 C.3          1 2BA803   0.0000
     7 O4'         48.4640    -8.9260     2.8410 O.3          1 2BA803   0.0000
     8 C3'         47.3400    -7.8540     4.5660 C.3          1 2BA803   0.0000
     9 O3'         46.7330    -8.0790     5.8320 O.3          1 2BA803   0.0000
    10 C2'         48.8160    -7.5130     4.7160 C.3          1 2BA803   0.0000
    11 O2'         49.3430    -8.2620     5.8210 O.3          1 2BA803   0.0000
    12 C1'         49.4280    -8.0730     3.4380 C.3          1 2BA803   0.0000
    13 N9          49.7170    -6.9660     2.5220 N.pl3        1 2BA803   0.0000
    14 C8          48.8250    -6.2670     1.7800 C.2          1 2BA803   0.0000
    15 N7          49.4680    -5.3100     1.0640 N.2          1 2BA803   0.0000
    16 C5          50.7780    -5.3780     1.3680 C.ar         1 2BA803   0.0000
    17 C6          52.0100    -4.6530     0.9920 C.ar         1 2BA803   0.0000
    18 N6          51.9690    -3.6270     0.1130 N.pl3        1 2BA803   0.0000
    19 N1          53.1790    -5.0580     1.5440 N.ar         1 2BA803   0.0000
    20 C2          53.2490    -6.0760     2.4240 C.ar         1 2BA803   0.0000
    21 N3          52.1690    -6.7690     2.8220 N.ar         1 2BA803   0.0000
    22 C4          50.9390    -6.4710     2.3320 C.ar         1 2BA803   0.0000
    23 P1          46.0210    -6.8660     6.6400 P.3          1 2BA803   0.0000
    24 O1P1        46.7780    -5.5780     6.4130 O.2          1 2BA803   0.0000
    25 O2P1        45.7210    -7.3910     8.0240 O.3          1 2BA803   0.0000
    26 O5'1        44.6060    -6.7020     5.8980 O.3          1 2BA803   0.0000
    27 C5'1        43.5300    -7.6250     6.0500 C.3          1 2BA803   0.0000
    28 C4'1        42.5130    -7.3600     4.9310 C.3          1 2BA803   0.0000
    29 O4'1        41.9370    -6.0770     5.1870 O.3          1 2BA803   0.0000
    30 C3'1        43.0750    -7.2670     3.5050 C.3          1 2BA803   0.0000
    31 O3'1        43.0870    -8.4830     2.7470 O.3          1 2BA803   0.0000
    32 C2'1        42.0700    -6.3330     2.8450 C.3          1 2BA803   0.0000
    33 O2'1        40.9270    -7.0980     2.3950 O.3          1 2BA803   0.0000
    34 C1'1        41.5930    -5.4280     3.9720 C.3          1 2BA803   0.0000
    35 N91         42.3340    -4.1480     4.0060 N.pl3        1 2BA803   0.0000
    36 C81         43.6100    -3.9800     4.4230 C.2          1 2BA803   0.0000
    37 N71         44.0080    -2.6770     4.3430 N.2          1 2BA803   0.0000
    38 C51         42.9480    -1.9980     3.8550 C.ar         1 2BA803   0.0000
    39 C61         42.6750    -0.5810     3.5100 C.ar         1 2BA803   0.0000
    40 N61         43.6370     0.3630     3.6850 N.pl3        1 2BA803   0.0000
    41 N11         41.4460    -0.2800     3.0470 N.ar         1 2BA803   0.0000
    42 C21         40.4950    -1.2220     2.8630 C.ar         1 2BA803   0.0000
    43 N31         40.6750    -2.5320     3.1320 N.ar         1 2BA803   0.0000
    44 C41         41.8550    -2.9640     3.6310 C.ar         1 2BA803   0.0000
    45 H1P         41.8069   -10.0712     4.3549 H            1 2BA803   0.0000
    46 H5'1        45.9077    -8.5628     2.4017 H            1 2BA803   0.0000
    47 H5'2        46.2493   -10.1581     2.3316 H            1 2BA803   0.0000
    48 H4'         47.5710    -9.9266     4.3375 H            1 2BA803   0.0000
    49 H3'         46.8595    -7.1330     4.0667 H            1 2BA803   0.0000
    50 H2'         48.9716    -6.5300     4.8136 H            1 2BA803   0.0000
    51 H7          50.3137    -8.0501     5.9346 H            1 2BA803   0.0000
    52 H1'         50.2636    -8.5818     3.6451 H            1 2BA803   0.0000
    53 H9          47.8388    -6.4317     1.7624 H            1 2BA803   0.0000
    54 H10         52.8101    -3.1451    -0.1326 H            1 2BA803   0.0000
    55 H11         51.0976    -3.3498    -0.2917 H            1 2BA803   0.0000
    56 H12         54.1426    -6.3263     2.7966 H            1 2BA803   0.0000
    57 H13         43.0952    -7.4950     6.9411 H            1 2BA803   0.0000
    58 H14         43.8742    -8.5613     5.9805 H            1 2BA803   0.0000
    59 H15         41.7970    -8.0575     4.9610 H            1 2BA803   0.0000
    60 H16         43.9846    -6.8517     3.5141 H            1 2BA803   0.0000
    61 H17         42.4834    -5.8104     2.0994 H            1 2BA803   0.0000
    62 H18         40.8283    -6.9987     1.4049 H            1 2BA803   0.0000
    63 H19         40.6070    -5.2713     3.9146 H            1 2BA803   0.0000
    64 H20         44.1930    -4.7232     4.7513 H            1 2BA803   0.0000
    65 H21         43.4496     1.3171     3.4514 H            1 2BA803   0.0000
    66 H22         44.5322     0.1034     4.0473 H            1 2BA803   0.0000
    67 H23         39.6067    -0.9317     2.5070 H            1 2BA803   0.0000
    68 H24         46.5738    -7.6647     8.4688 H            1 2BA803   0.0000
@<TRIPOS>BOND
     1    1    2       1
     2    1    3       2
     3    1    4       1
     4    1   31       1
     5    4    5       1
     6    5    6       1
     7    6    7       1
     8    6    8       1
     9    7   12       1
    10    8    9       1
    11    8   10       1
    12    9   23       1
    13   10   11       1
    14   10   12       1
    15   12   13       1
    16   13   14       1
    17   13   22       1
    18   14   15       2
    19   15   16       1
    20   16   17      ar
    21   16   22      ar
    22   17   18       1
    23   17   19      ar
    24   19   20      ar
    25   20   21      ar
    26   21   22      ar
    27   23   24       2
    28   23   25       1
    29   23   26       1
    30   26   27       1
    31   27   28       1
    32   28   29       1
    33   28   30       1
    34   29   34       1
    35   30   31       1
    36   30   32       1
    37   32   33       1
    38   32   34       1
    39   34   35       1
    40   35   36       1
    41   35   44       1
    42   36   37       2
    43   37   38       1
    44   38   39      ar
    45   38   44      ar
    46   39   40       1
    47   39   41      ar
    48   41   42      ar
    49   42   43      ar
    50   43   44      ar
    51    2   45       1
    52    5   46       1
    53    5   47       1
    54    6   48       1
    55    8   49       1
    56   10   50       1
    57   11   51       1
    58   12   52       1
    59   14   53       1
    60   18   54       1
    61   18   55       1
    62   20   56       1
    63   42   67       1
    64   27   57       1
    65   27   58       1
    66   28   59       1
    67   30   60       1
    68   32   61       1
    69   33   62       1
    70   34   63       1
    71   36   64       1
    72   40   65       1
    73   40   66       1
    74   25   68       1
@<TRIPOS>SUBSTRUCTURE
     1 2BA803      1 GROUP             4 D     2BA     0 **** 2BA D 803
