@<TRIPOS>MOLECULE
3wwm_ADP_1_ligand
   39    41     1     0     0
SMALL
NO_CHARGES


@<TRIPOS>ATOM
     1 PB          11.0810     1.6400    25.9620 P.3          1 ADP301   0.0000
     2 O1B         11.6550     3.0020    26.2430 O.co2        1 ADP301   0.0000
     3 O2B         12.0710     0.5150    26.1350 O.co2        1 ADP301  -1.0000
     4 O3B          9.6920     1.4220    26.5070 O.co2        1 ADP301  -1.0000
     5 PA          11.3550     2.4160    23.2000 P.3          1 ADP301   0.0000
     6 O1A         10.7990     1.7800    21.9470 O.co2        1 ADP301   0.0000
     7 O2A         12.8420     2.4970    23.4000 O.co2        1 ADP301  -1.0000
     8 O3A         10.7350     1.5400    24.3960 O.3          1 ADP301   0.0000
     9 O5'         10.6790     3.8690    23.4430 O.3          1 ADP301   0.0000
    10 C5'          9.7810     4.5240    22.5240 C.3          1 ADP301   0.0000
    11 C4'         10.5960     5.2040    21.4240 C.3          1 ADP301   0.0000
    12 O4'          9.8970     5.3950    20.1850 O.3          1 ADP301   0.0000
    13 C3'         11.0940     6.5990    21.7620 C.3          1 ADP301   0.0000
    14 O3'         12.2050     6.6030    22.6620 O.3          1 ADP301   0.0000
    15 C2'         11.4780     7.1240    20.3890 C.3          1 ADP301   0.0000
    16 O2'         12.8950     7.1350    20.1870 O.3          1 ADP301   0.0000
    17 C1'         10.8080     6.1700    19.3970 C.3          1 ADP301   0.0000
    18 N9          10.2190     6.9750    18.2920 N.pl3        1 ADP301   0.0000
    19 C8           9.2410     7.9010    18.3810 C.2          1 ADP301   0.0000
    20 N7           8.9880     8.4520    17.1620 N.2          1 ADP301   0.0000
    21 C5           9.8200     7.8800    16.2750 C.ar         1 ADP301   0.0000
    22 C6          10.0890     7.9900    14.8210 C.ar         1 ADP301   0.0000
    23 N6           9.3950     8.8520    14.0570 N.pl3        1 ADP301   0.0000
    24 N1          11.0520     7.2110    14.2790 N.ar         1 ADP301   0.0000
    25 C2          11.7610     6.3450    15.0340 C.ar         1 ADP301   0.0000
    26 N3          11.5650     6.1940    16.3610 N.ar         1 ADP301   0.0000
    27 C4          10.6320     6.9170    17.0260 C.ar         1 ADP301   0.0000
    28 H5'1         9.2426     5.2097    23.0138 H            1 ADP301   0.0000
    29 H5'2         9.1676     3.8476    22.1163 H            1 ADP301   0.0000
    30 H4'         11.3948     4.6317    21.2384 H            1 ADP301   0.0000
    31 H3'         10.3468     7.1459    22.1398 H            1 ADP301   0.0000
    32 H5          12.1505     5.8052    23.2624 H            1 ADP301   0.0000
    33 H2'         11.1133     8.0471    20.2673 H            1 ADP301   0.0000
    34 H7          13.3556     7.2729    21.0638 H            1 ADP301   0.0000
    35 H1'         11.5035     5.5606    19.0163 H            1 ADP301   0.0000
    36 H9           8.7673     8.1484    19.2262 H            1 ADP301   0.0000
    37 H10          9.5855     8.9172    13.0775 H            1 ADP301   0.0000
    38 H11          8.6885     9.4278    14.4684 H            1 ADP301   0.0000
    39 H12         12.4639     5.7897    14.5896 H            1 ADP301   0.0000
@<TRIPOS>BOND
     1    1    2      ar
     2    1    3      ar
     3    1    4      ar
     4    1    8       1
     5    5    6      ar
     6    5    7      ar
     7    5    8       1
     8    5    9       1
     9    9   10       1
    10   10   11       1
    11   11   12       1
    12   11   13       1
    13   12   17       1
    14   13   14       1
    15   13   15       1
    16   15   16       1
    17   15   17       1
    18   17   18       1
    19   18   19       1
    20   18   27       1
    21   19   20       2
    22   20   21       1
    23   21   22      ar
    24   21   27      ar
    25   22   23       1
    26   22   24      ar
    27   24   25      ar
    28   25   26      ar
    29   26   27      ar
    30   25   39       1
    31   23   38       1
    32   23   37       1
    33   10   28       1
    34   10   29       1
    35   11   30       1
    36   13   31       1
    37   14   32       1
    38   15   33       1
    39   16   34       1
    40   17   35       1
    41   19   36       1
@<TRIPOS>SUBSTRUCTURE
     1 ADP301      1 GROUP             4 A     ADP     0 **** ADP A 301
