@<TRIPOS>MOLECULE
2kfx_WW7_1_ligand
   44    45     1     0     0
SMALL
NO_CHARGES


@<TRIPOS>ATOM
     1 S1          80.5120     3.5460    -4.6840 S.o2         1 WW791    0.0000
     2 O1          81.1220     3.1440    -5.9080 O.2          1 WW791    0.0000
     3 O2          80.0010     4.8940    -4.6240 O.2          1 WW791    0.0000
     4 N1          79.1720     2.4680    -4.4240 N.3          1 WW791    0.0000
     5 C4          83.5310     3.0740    -1.0900 C.ar         1 WW791    0.0000
     6 C3          82.7070     4.2620    -1.2390 C.ar         1 WW791    0.0000
     7 C2          81.7800     4.3970    -2.3630 C.ar         1 WW791    0.0000
     8 C1          81.6580     3.3380    -3.3570 C.ar         1 WW791    0.0000
     9 C9          82.4730     2.1370    -3.2400 C.ar         1 WW791    0.0000
    10 C10         83.4330     2.0030    -2.0750 C.ar         1 WW791    0.0000
    11 CL1         85.3400     0.5440    -0.6480 Cl           1 WW791    0.0000
    12 C5          84.2360     0.7930    -1.9530 C.ar         1 WW791    0.0000
    13 C6          84.1160    -0.2700    -2.9400 C.ar         1 WW791    0.0000
    14 C7          83.1880    -0.1340    -4.0650 C.ar         1 WW791    0.0000
    15 C8          82.3690     1.0600    -4.2180 C.ar         1 WW791    0.0000
    16 C11         77.8860     3.0730    -4.0850 C.3          1 WW791    0.0000
    17 C12         77.4570     2.8470    -2.6360 C.3          1 WW791    0.0000
    18 C14         79.2170     2.8360    -0.8560 C.3          1 WW791    0.0000
    19 C13         78.2960     3.7170    -1.7000 C.3          1 WW791    0.0000
    20 C15         79.2490     3.3530     0.5860 C.3          1 WW791    0.0000
    21 C16         80.6500     3.1660     1.1770 C.3          1 WW791    0.0000
    22 N2          81.2660     4.4210     1.5760 N.4          1 WW791    1.0000
    23 H1          79.4215     1.8524    -3.6765 H            1 WW791    0.0000
    24 H2          84.1607     2.9916    -0.3175 H            1 WW791    0.0000
    25 H3          82.7745     4.9970    -0.5643 H            1 WW791    0.0000
    26 H4          81.2246     5.2240    -2.4501 H            1 WW791    0.0000
    27 H5          84.6701    -1.0975    -2.8495 H            1 WW791    0.0000
    28 H6          83.1160    -0.8711    -4.7370 H            1 WW791    0.0000
    29 H7          81.7383     1.1412    -4.9898 H            1 WW791    0.0000
    30 H8          77.1870     2.6832    -4.6846 H            1 WW791    0.0000
    31 H9          77.9500     4.0582    -4.2442 H            1 WW791    0.0000
    32 H10         77.5871     1.8844    -2.3985 H            1 WW791    0.0000
    33 H11         76.4917     3.0877    -2.5351 H            1 WW791    0.0000
    34 H12         80.1409     2.8595    -1.2379 H            1 WW791    0.0000
    35 H13         78.8767     1.8957    -0.8644 H            1 WW791    0.0000
    36 H14         77.6897     4.2357    -1.0973 H            1 WW791    0.0000
    37 H15         78.8484     4.3501    -2.2422 H            1 WW791    0.0000
    38 H16         78.5868     2.8436     1.1355 H            1 WW791    0.0000
    39 H17         79.0124     4.3246     0.5951 H            1 WW791    0.0000
    40 H18         81.2308     2.7294     0.4900 H            1 WW791    0.0000
    41 H19         80.5814     2.5743     1.9802 H            1 WW791    0.0000
    42 H20         81.8843     4.2592     2.3451 H            1 WW791    0.0000
    43 H21         81.7821     4.7983     0.8071 H            1 WW791    0.0000
    44 H22         80.5553     5.0688     1.8503 H            1 WW791    0.0000
@<TRIPOS>BOND
     1    1    2       2
     2    1    3       2
     3    1    4       1
     4    1    8       1
     5    4   16       1
     6    5    6      ar
     7    5   10      ar
     8    6    7      ar
     9    7    8      ar
    10    8    9      ar
    11    9   10      ar
    12    9   15      ar
    13   10   12      ar
    14   11   12       1
    15   12   13      ar
    16   13   14      ar
    17   14   15      ar
    18   16   17       1
    19   17   19       1
    20   18   19       1
    21   18   20       1
    22   20   21       1
    23   21   22       1
    24    4   23       1
    25    5   24       1
    26    6   25       1
    27    7   26       1
    28   13   27       1
    29   14   28       1
    30   15   29       1
    31   16   30       1
    32   16   31       1
    33   17   32       1
    34   17   33       1
    35   18   34       1
    36   18   35       1
    37   19   36       1
    38   19   37       1
    39   20   38       1
    40   20   39       1
    41   21   40       1
    42   21   41       1
    43   22   42       1
    44   22   43       1
    45   22   44       1
@<TRIPOS>SUBSTRUCTURE
     1 WW791       1 GROUP             4 T     WW7     0 **** WW7 T  91
