@<TRIPOS>MOLECULE
3go4_SAH_1_ligand
   46    48     1     0     0
SMALL
NO_CHARGES


@<TRIPOS>ATOM
     1 N          -15.9840    24.0660    16.0910 N.4          1 SAH277   1.0000
     2 CA         -15.8780    23.0800    17.2460 C.3          1 SAH277   0.0000
     3 CB         -17.1950    22.3460    17.5440 C.3          1 SAH277   0.0000
     4 CG         -17.6690    21.4370    16.4020 C.3          1 SAH277   0.0000
     5 SD         -19.2320    20.6480    16.7230 S.3          1 SAH277   0.0000
     6 C          -14.7740    22.0850    16.9600 C.2          1 SAH277   0.0000
     7 O          -14.0900    21.5690    17.8450 O.co2        1 SAH277   0.0000
     8 OXT        -14.4920    21.7930    15.8040 O.co2        1 SAH277  -1.0000
     9 C5'        -20.4270    21.4190    15.6810 C.3          1 SAH277   0.0000
    10 C4'        -21.0630    22.6090    16.3740 C.3          1 SAH277   0.0000
    11 O4'        -21.7460    23.4060    15.4030 O.3          1 SAH277   0.0000
    12 C3'        -22.0870    22.2010    17.4210 C.3          1 SAH277   0.0000
    13 O3'        -21.7760    22.8630    18.6300 O.3          1 SAH277   0.0000
    14 C2'        -23.4100    22.6580    16.8490 C.3          1 SAH277   0.0000
    15 O2'        -24.3860    23.0080    17.8080 O.3          1 SAH277   0.0000
    16 C1'        -22.9650    23.8440    16.0020 C.3          1 SAH277   0.0000
    17 N9         -23.9000    24.2030    14.9400 N.pl3        1 SAH277   0.0000
    18 C8         -24.5140    23.3540    14.0950 C.2          1 SAH277   0.0000
    19 N7         -25.3070    24.0190    13.2300 N.2          1 SAH277   0.0000
    20 C5         -25.2060    25.3200    13.5300 C.ar         1 SAH277   0.0000
    21 C6         -25.7760    26.5600    12.9920 C.ar         1 SAH277   0.0000
    22 N6         -26.6220    26.4690    11.9430 N.pl3        1 SAH277   0.0000
    23 N1         -25.4310    27.7290    13.5760 N.ar         1 SAH277   0.0000
    24 C2         -24.5450    27.7810    14.6080 C.ar         1 SAH277   0.0000
    25 N3         -23.9870    26.6790    15.1590 N.ar         1 SAH277   0.0000
    26 C4         -24.2600    25.4540    14.6530 C.ar         1 SAH277   0.0000
    27 H1         -15.3420    24.8189    16.2355 H            1 SAH277   0.0000
    28 H2         -15.7640    23.6002    15.2339 H            1 SAH277   0.0000
    29 HA         -15.6221    23.5941    18.0647 H            1 SAH277   0.0000
    30 HB1        -17.9042    23.0291    17.7185 H            1 SAH277   0.0000
    31 HB2        -17.0651    21.7842    18.3610 H            1 SAH277   0.0000
    32 HG1        -16.9802    20.7269    16.2562 H            1 SAH277   0.0000
    33 HG2        -17.7580    21.9901    15.5736 H            1 SAH277   0.0000
    34 H5'1       -21.1386    20.7549    15.4520 H            1 SAH277   0.0000
    35 H5'2       -19.9786    21.7295    14.8428 H            1 SAH277   0.0000
    36 H4'        -20.3488    23.1582    16.8079 H            1 SAH277   0.0000
    37 H3'        -22.0827    21.2095    17.5508 H            1 SAH277   0.0000
    38 H12        -21.8087    23.8521    18.4864 H            1 SAH277   0.0000
    39 H2'        -23.7754    21.9443    16.2515 H            1 SAH277   0.0000
    40 H14        -24.0438    23.7586    18.3732 H            1 SAH277   0.0000
    41 H1'        -22.7925    24.6362    16.5874 H            1 SAH277   0.0000
    42 H16        -24.3975    22.3609    14.1070 H            1 SAH277   0.0000
    43 H17        -27.0269    27.2965    11.5539 H            1 SAH277   0.0000
    44 H18        -26.8435    25.5742    11.5554 H            1 SAH277   0.0000
    45 H19        -24.2948    28.6764    14.9763 H            1 SAH277   0.0000
    46 H20        -16.9156    24.4265    16.0449 H            1 SAH277   0.0000
@<TRIPOS>BOND
     1    1    2       1
     2    2    3       1
     3    2    6       1
     4    3    4       1
     5    4    5       1
     6    5    9       1
     7    6    7      ar
     8    6    8      ar
     9    9   10       1
    10   10   11       1
    11   10   12       1
    12   11   16       1
    13   12   13       1
    14   12   14       1
    15   14   15       1
    16   14   16       1
    17   16   17       1
    18   17   18       1
    19   17   26       1
    20   18   19       2
    21   19   20       1
    22   20   21      ar
    23   20   26      ar
    24   21   22       1
    25   21   23      ar
    26   23   24      ar
    27   24   25      ar
    28   25   26      ar
    29    1   27       1
    30    1   28       1
    31    2   29       1
    32    3   30       1
    33    3   31       1
    34    4   32       1
    35    4   33       1
    36    1   46       1
    37    9   34       1
    38    9   35       1
    39   10   36       1
    40   12   37       1
    41   13   38       1
    42   14   39       1
    43   15   40       1
    44   16   41       1
    45   18   42       1
    46   22   43       1
    47   22   44       1
    48   24   45       1
@<TRIPOS>SUBSTRUCTURE
     1 SAH277      1 GROUP             4 A     SAH     0 **** SAH A 277
