@<TRIPOS>MOLECULE
2zrf_DTP_1_ligand
   42    44     1     0     0
SMALL
NO_CHARGES


@<TRIPOS>ATOM
     1 PG         -17.3890    17.7480    -6.9360 P.3          1 DTP600   0.0000
     2 O1G        -18.3270    17.9000    -5.8010 O.co2        1 DTP600   0.0000
     3 O2G        -16.5000    19.0830    -7.0800 O.co2        1 DTP600  -1.0000
     4 O3G        -16.4240    16.4870    -6.6690 O.co2        1 DTP600  -1.0000
     5 PB         -19.7890    17.2970    -8.1210 P.3          1 DTP600   0.0000
     6 O1B        -20.4700    18.3660    -7.2830 O.co2        1 DTP600   0.0000
     7 O2B        -20.1770    15.7830    -7.7360 O.co2        1 DTP600  -1.0000
     8 O3B        -18.2140    17.5110    -8.2800 O.3          1 DTP600   0.0000
     9 PA         -20.5560    19.0620   -10.1380 P.3          1 DTP600   0.0000
    10 O1A        -19.4500    20.0430   -10.2130 O.co2        1 DTP600   0.0000
    11 O2A        -22.0970    19.5300   -10.0870 O.co2        1 DTP600  -1.0000
    12 O3A        -20.3310    17.5580    -9.6090 O.3          1 DTP600   0.0000
    13 O5'        -20.6010    18.5410   -11.6640 O.3          1 DTP600   0.0000
    14 C5'        -21.7720    17.8780   -12.1540 C.3          1 DTP600   0.0000
    15 C4'        -22.3410    18.6580   -13.3420 C.3          1 DTP600   0.0000
    16 O4'        -22.3440    20.0720   -13.0820 O.3          1 DTP600   0.0000
    17 C3'        -21.4020    18.5210   -14.5390 C.3          1 DTP600   0.0000
    18 O3'        -21.6860    17.2760   -15.1830 O.3          1 DTP600   0.0000
    19 C2'        -21.9500    19.6650   -15.3900 C.3          1 DTP600   0.0000
    20 C1'        -22.1700    20.7560   -14.3390 C.3          1 DTP600   0.0000
    21 N9         -21.0470    21.6940   -14.1590 N.pl3        1 DTP600   0.0000
    22 C8         -20.5500    22.0130   -12.9630 C.2          1 DTP600   0.0000
    23 N7         -19.5650    22.9110   -13.1340 N.2          1 DTP600   0.0000
    24 C5         -19.4640    23.1840   -14.3910 C.ar         1 DTP600   0.0000
    25 C6         -18.6890    24.0600   -15.1740 C.ar         1 DTP600   0.0000
    26 N6         -17.7220    24.8030   -14.5840 N.pl3        1 DTP600   0.0000
    27 N1         -18.7950    24.0560   -16.5130 N.ar         1 DTP600   0.0000
    28 C2         -19.7040    23.2860   -17.1100 C.ar         1 DTP600   0.0000
    29 N3         -20.5120    22.4730   -16.4290 N.ar         1 DTP600   0.0000
    30 C4         -20.3640    22.3550   -15.0940 C.ar         1 DTP600   0.0000
    31 H5'1       -22.4572    17.8311   -11.4271 H            1 DTP600   0.0000
    32 H5'2       -21.5329    16.9522   -12.4469 H            1 DTP600   0.0000
    33 H4'        -23.2596    18.3365   -13.5717 H            1 DTP600   0.0000
    34 H3'        -20.4373    18.6322   -14.3002 H            1 DTP600   0.0000
    35 H5         -22.3884    17.4145   -15.8812 H            1 DTP600   0.0000
    36 H2'1       -22.8082    19.4094   -15.8352 H            1 DTP600   0.0000
    37 H2'2       -21.2885    19.9537   -16.0821 H            1 DTP600   0.0000
    38 H1'        -23.0006    21.2679   -14.5582 H            1 DTP600   0.0000
    39 H9         -20.8588    21.6454   -12.0858 H            1 DTP600   0.0000
    40 H10        -17.1668    25.4279   -15.1329 H            1 DTP600   0.0000
    41 H11        -17.5634    24.7266   -13.5996 H            1 DTP600   0.0000
    42 H12        -19.7831    23.3192   -18.1063 H            1 DTP600   0.0000
@<TRIPOS>BOND
     1    1    2      ar
     2    1    3      ar
     3    1    4      ar
     4    1    8       1
     5    5    6      ar
     6    5    7      ar
     7    5    8       1
     8    5   12       1
     9    9   10      ar
    10    9   11      ar
    11    9   12       1
    12    9   13       1
    13   13   14       1
    14   14   15       1
    15   15   16       1
    16   15   17       1
    17   16   20       1
    18   17   18       1
    19   17   19       1
    20   19   20       1
    21   20   21       1
    22   21   22       1
    23   21   30       1
    24   22   23       2
    25   23   24       1
    26   24   25      ar
    27   24   30      ar
    28   25   26       1
    29   25   27      ar
    30   27   28      ar
    31   28   29      ar
    32   29   30      ar
    33   28   42       1
    34   26   41       1
    35   26   40       1
    36   22   39       1
    37   14   31       1
    38   14   32       1
    39   15   33       1
    40   17   34       1
    41   18   35       1
    42   19   36       1
    43   19   37       1
    44   20   38       1
@<TRIPOS>SUBSTRUCTURE
     1 DTP600      1 GROUP             4 A     DTP     0 **** DTP A 600
