@<TRIPOS>MOLECULE
1mxi_SAH_1_ligand
   46    48     1     0     0
SMALL
NO_CHARGES


@<TRIPOS>ATOM
     1 N            5.8130   -16.6740    -2.8030 N.4          1 SAH302   1.0000
     2 CA           5.3250   -15.6990    -3.7890 C.3          1 SAH302   0.0000
     3 CB           5.4410   -14.2510    -3.2560 C.3          1 SAH302   0.0000
     4 CG           4.7450   -14.0380    -1.8880 C.3          1 SAH302   0.0000
     5 SD           3.1160   -13.2520    -1.7740 S.3          1 SAH302   0.0000
     6 C            6.0850   -15.8370    -5.1340 C.2          1 SAH302   0.0000
     7 O            6.9880   -16.7180    -5.1940 O.co2        1 SAH302   0.0000
     8 OXT          5.7910   -15.0730    -6.0980 O.co2        1 SAH302  -1.0000
     9 C5'          3.0000   -13.3180     0.0470 C.3          1 SAH302   0.0000
    10 C4'          2.0770   -14.3840     0.5520 C.3          1 SAH302   0.0000
    11 O4'          0.7850   -14.0500     0.0520 O.3          1 SAH302   0.0000
    12 C3'          2.3650   -15.8230     0.0260 C.3          1 SAH302   0.0000
    13 O3'          3.5450   -16.3710     0.7430 O.3          1 SAH302   0.0000
    14 C2'          1.0410   -16.4380     0.4730 C.3          1 SAH302   0.0000
    15 O2'          0.9420   -16.7550     1.8740 O.3          1 SAH302   0.0000
    16 C1'          0.0870   -15.3340    -0.0280 C.3          1 SAH302   0.0000
    17 N9          -0.4160   -15.4560    -1.3920 N.pl3        1 SAH302   0.0000
    18 C8          -0.2680   -14.5640    -2.4910 C.2          1 SAH302   0.0000
    19 N7          -0.9240   -15.0430    -3.5480 N.2          1 SAH302   0.0000
    20 C5          -1.5130   -16.2560    -3.1490 C.ar         1 SAH302   0.0000
    21 C6          -2.3530   -17.2610    -3.7790 C.ar         1 SAH302   0.0000
    22 N6          -2.7830   -17.1670    -5.0570 N.pl3        1 SAH302   0.0000
    23 N1          -2.7470   -18.3680    -3.0640 N.ar         1 SAH302   0.0000
    24 C2          -2.3430   -18.4780    -1.8140 C.ar         1 SAH302   0.0000
    25 N3          -1.6050   -17.6510    -1.1150 N.ar         1 SAH302   0.0000
    26 C4          -1.1980   -16.5350    -1.8280 C.ar         1 SAH302   0.0000
    27 H1           5.0736   -17.3026    -2.5617 H            1 SAH302   0.0000
    28 H2           6.5752   -17.1902    -3.1937 H            1 SAH302   0.0000
    29 HA           4.3581   -15.8892    -3.9594 H            1 SAH302   0.0000
    30 HB1          5.0235   -13.6339    -3.9230 H            1 SAH302   0.0000
    31 HB2          6.4105   -14.0273    -3.1561 H            1 SAH302   0.0000
    32 HG1          5.3671   -13.4814    -1.3374 H            1 SAH302   0.0000
    33 HG2          4.6522   -14.9433    -1.4735 H            1 SAH302   0.0000
    34 H5'1         2.6697   -12.4329     0.3748 H            1 SAH302   0.0000
    35 H5'2         3.9134   -13.4903     0.4157 H            1 SAH302   0.0000
    36 H4'          2.0672   -14.3816     1.5519 H            1 SAH302   0.0000
    37 H3'          2.4790   -15.8483    -0.9672 H            1 SAH302   0.0000
    38 H12          3.8825   -15.6932     1.3962 H            1 SAH302   0.0000
    39 H2'          0.8773   -17.2698    -0.0574 H            1 SAH302   0.0000
    40 H14          0.7778   -17.7354     1.9831 H            1 SAH302   0.0000
    41 H1'         -0.6984   -15.2990     0.5901 H            1 SAH302   0.0000
    42 H16          0.2492   -13.7083    -2.4730 H            1 SAH302   0.0000
    43 H17         -3.3599   -17.8860    -5.4446 H            1 SAH302   0.0000
    44 H18         -2.5242   -16.3785    -5.6149 H            1 SAH302   0.0000
    45 H19         -2.6397   -19.3039    -1.3346 H            1 SAH302   0.0000
    46 H20          6.1222   -16.1925    -1.9829 H            1 SAH302   0.0000
@<TRIPOS>BOND
     1    1    2       1
     2    2    3       1
     3    2    6       1
     4    3    4       1
     5    4    5       1
     6    5    9       1
     7    6    7      ar
     8    6    8      ar
     9    9   10       1
    10   10   11       1
    11   10   12       1
    12   11   16       1
    13   12   13       1
    14   12   14       1
    15   14   15       1
    16   14   16       1
    17   16   17       1
    18   17   18       1
    19   17   26       1
    20   18   19       2
    21   19   20       1
    22   20   21      ar
    23   20   26      ar
    24   21   22       1
    25   21   23      ar
    26   23   24      ar
    27   24   25      ar
    28   25   26      ar
    29    1   27       1
    30    1   28       1
    31    2   29       1
    32    3   30       1
    33    3   31       1
    34    4   32       1
    35    4   33       1
    36    1   46       1
    37    9   34       1
    38    9   35       1
    39   10   36       1
    40   12   37       1
    41   13   38       1
    42   14   39       1
    43   15   40       1
    44   16   41       1
    45   18   42       1
    46   22   43       1
    47   22   44       1
    48   24   45       1
@<TRIPOS>SUBSTRUCTURE
     1 SAH302      1 GROUP             4 A     SAH     0 **** SAH A 302
