@<TRIPOS>MOLECULE
2cbr_A80_1_ligand
   50    52     1     0     0
SMALL
NO_CHARGES


@<TRIPOS>ATOM
     1 C1          29.0760    81.9550     5.4700 C.3          1 A80201   0.0000
     2 C2          29.3930    82.3310     4.0090 C.3          1 A80201   0.0000
     3 C3          28.4650    83.4730     3.4930 C.3          1 A80201   0.0000
     4 C4          27.0040    83.0070     3.3910 C.3          1 A80201   0.0000
     5 C5          26.5340    82.2560     4.6970 C.ar         1 A80201   0.0000
     6 C6          25.1590    82.0750     4.9840 C.ar         1 A80201   0.0000
     7 C7          24.7380    81.4320     6.1560 C.ar         1 A80201   0.0000
     8 C8          25.6800    80.9390     7.1100 C.ar         1 A80201   0.0000
     9 C9          27.0620    81.1260     6.8810 C.ar         1 A80201   0.0000
    10 C10         27.5330    81.7750     5.7020 C.ar         1 A80201   0.0000
    11 N11         25.2850    80.2390     8.3010 N.am         1 A80201   0.0000
    12 C12         24.0040    79.9950     8.7070 C.2          1 A80201   0.0000
    13 C13         23.7550    79.2120     9.9550 C.ar         1 A80201   0.0000
    14 C14         24.8390    78.7470    10.7410 C.ar         1 A80201   0.0000
    15 C15         24.5880    77.9720    11.8920 C.ar         1 A80201   0.0000
    16 C16         23.2550    77.6580    12.2650 C.ar         1 A80201   0.0000
    17 C17         22.1720    78.1300    11.4870 C.ar         1 A80201   0.0000
    18 C18         22.4160    78.8980    10.3380 C.ar         1 A80201   0.0000
    19 C19         22.9980    76.8480    13.4320 C.2          1 A80201   0.0000
    20 C20         29.6360    83.0620     6.3710 C.3          1 A80201   0.0000
    21 C21         29.8010    80.6620     5.8440 C.3          1 A80201   0.0000
    22 C22         26.1020    84.2180     3.1130 C.3          1 A80201   0.0000
    23 C23         26.8940    82.0640     2.1860 C.3          1 A80201   0.0000
    24 O24         23.0300    80.3960     8.0500 O.2          1 A80201   0.0000
    25 O25         23.2590    75.6160    13.4090 O.co2        1 A80201   0.0000
    26 O26         22.2950    77.3000    14.3450 O.co2        1 A80201  -1.0000
    27 H1          29.2658    81.5243     3.4319 H            1 A80201   0.0000
    28 H2          30.3439    82.6353     3.9517 H            1 A80201   0.0000
    29 H3          28.7779    83.7625     2.5884 H            1 A80201   0.0000
    30 H4          28.5166    84.2451     4.1264 H            1 A80201   0.0000
    31 H5          24.4749    82.4127     4.3375 H            1 A80201   0.0000
    32 H6          23.7597    81.3161     6.3276 H            1 A80201   0.0000
    33 H7          27.7210    80.7974     7.5576 H            1 A80201   0.0000
    34 H8          26.0183    79.8978     8.8890 H            1 A80201   0.0000
    35 H9          25.7788    78.9678    10.4801 H            1 A80201   0.0000
    36 H10         25.3516    77.6426    12.4473 H            1 A80201   0.0000
    37 H11         21.2327    77.9165    11.7557 H            1 A80201   0.0000
    38 H12         21.6496    79.2263     9.7859 H            1 A80201   0.0000
    39 H13         29.4435    82.8426     7.3275 H            1 A80201   0.0000
    40 H14         30.6246    83.1322     6.2375 H            1 A80201   0.0000
    41 H15         29.2051    83.9332     6.1357 H            1 A80201   0.0000
    42 H16         29.5909    80.4244     6.7924 H            1 A80201   0.0000
    43 H17         29.4989    79.9240     5.2407 H            1 A80201   0.0000
    44 H18         30.7874    80.7919     5.7436 H            1 A80201   0.0000
    45 H19         25.1508    83.9168     3.0463 H            1 A80201   0.0000
    46 H20         26.1911    84.8782     3.8588 H            1 A80201   0.0000
    47 H21         26.3767    84.6478     2.2528 H            1 A80201   0.0000
    48 H22         25.9503    81.7455     2.0970 H            1 A80201   0.0000
    49 H23         27.1607    82.5524     1.3551 H            1 A80201   0.0000
    50 H24         27.4993    81.2794     2.3204 H            1 A80201   0.0000
@<TRIPOS>BOND
     1    1    2       1
     2    1   10       1
     3    1   20       1
     4    1   21       1
     5    2    3       1
     6    3    4       1
     7    4    5       1
     8    4   22       1
     9    4   23       1
    10    5    6      ar
    11    5   10      ar
    12    6    7      ar
    13    7    8      ar
    14    8    9      ar
    15    8   11       1
    16    9   10      ar
    17   11   12      am
    18   12   13       1
    19   12   24       2
    20   13   14      ar
    21   13   18      ar
    22   14   15      ar
    23   15   16      ar
    24   16   17      ar
    25   16   19       1
    26   17   18      ar
    27   19   25      ar
    28   19   26      ar
    29    2   27       1
    30    2   28       1
    31    3   29       1
    32    3   30       1
    33    6   31       1
    34    7   32       1
    35    9   33       1
    36   11   34       1
    37   14   35       1
    38   15   36       1
    39   17   37       1
    40   18   38       1
    41   20   39       1
    42   20   40       1
    43   20   41       1
    44   21   42       1
    45   21   43       1
    46   21   44       1
    47   22   45       1
    48   22   46       1
    49   22   47       1
    50   23   48       1
    51   23   49       1
    52   23   50       1
@<TRIPOS>SUBSTRUCTURE
     1 A80201      1 GROUP             4 A     A80     0 **** A80 A 201
