@<TRIPOS>MOLECULE
2oww_G4D_1_ligand
   23    23     1     0     0
SMALL
NO_CHARGES


@<TRIPOS>ATOM
     1 C1          46.1700    33.5970    81.2570 C.3          1 G4D2300   0.0000
     2 C2          45.5330    33.0770    79.9630 C.3          1 G4D2300   0.0000
     3 C3          46.2210    31.8720    79.3420 C.3          1 G4D2300   0.0000
     4 C4          47.7350    31.9500    79.4220 C.3          1 G4D2300   0.0000
     5 C5          48.1830    32.3000    80.8350 C.3          1 G4D2300   0.0000
     6 C6          49.7060    32.3980    80.8560 C.3          1 G4D2300   0.0000
     7 O1          45.6510    32.8440    82.3600 O.3          1 G4D2300   0.0000
     8 O2          44.1720    32.7020    80.2060 O.3          1 G4D2300   0.0000
     9 O3          45.8230    31.8320    77.9700 O.3          1 G4D2300   0.0000
    10 O5          47.6060    33.5380    81.2580 O.3          1 G4D2300   0.0000
    11 O6          50.1560    33.5560    80.1410 O.3          1 G4D2300   0.0000
    12 H1          45.8976    34.5518    81.3762 H            1 G4D2300   0.0000
    13 H2          45.5375    33.8190    79.2926 H            1 G4D2300   0.0000
    14 H3          45.9084    31.0403    79.8010 H            1 G4D2300   0.0000
    15 H4          48.0611    32.6536    78.7906 H            1 G4D2300   0.0000
    16 H5          48.1232    31.0652    79.1644 H            1 G4D2300   0.0000
    17 H6          47.8934    31.5742    81.4590 H            1 G4D2300   0.0000
    18 H7          50.0923    31.5800    80.4299 H            1 G4D2300   0.0000
    19 H8          50.0168    32.4581    81.8046 H            1 G4D2300   0.0000
    20 H9          46.0596    33.1744    83.2108 H            1 G4D2300   0.0000
    21 H10         44.1345    31.7400    80.4766 H            1 G4D2300   0.0000
    22 H11         45.8155    30.8837    77.6526 H            1 G4D2300   0.0000
    23 H12         50.2171    34.3323    80.7684 H            1 G4D2300   0.0000
@<TRIPOS>BOND
     1    1    2       1
     2    1    7       1
     3    1   10       1
     4    2    3       1
     5    2    8       1
     6    3    4       1
     7    3    9       1
     8    4    5       1
     9    5    6       1
    10    5   10       1
    11    6   11       1
    12    1   12       1
    13    2   13       1
    14    3   14       1
    15    4   15       1
    16    4   16       1
    17    5   17       1
    18    6   18       1
    19    6   19       1
    20    7   20       1
    21    8   21       1
    22    9   22       1
    23   11   23       1
@<TRIPOS>SUBSTRUCTURE
     1 G4D2300     1 GROUP             4 A     G4D     0 **** G4D A2300
