@<TRIPOS>MOLECULE
3pdu_NAP_4_ligand
   73    77     1     0     0
SMALL
NO_CHARGES


@<TRIPOS>ATOM
     1 PA         -48.3850    38.0850   -33.6480 P.3          1 NAP301   0.0000
     2 O1A        -47.8300    38.4440   -32.3170 O.co2        1 NAP301   0.0000
     3 O2A        -48.0860    39.0760   -34.6960 O.co2        1 NAP301  -1.0000
     4 O5B        -49.9540    37.8940   -33.5720 O.3          1 NAP301   0.0000
     5 C5B        -50.5500    37.0830   -32.6130 C.3          1 NAP301   0.0000
     6 C4B        -52.0390    37.1760   -32.8880 C.3          1 NAP301   0.0000
     7 O4B        -52.6840    36.5650   -31.7900 O.3          1 NAP301   0.0000
     8 C3B        -52.5280    38.6250   -32.9440 C.3          1 NAP301   0.0000
     9 O3B        -53.5870    38.6690   -33.8700 O.3          1 NAP301   0.0000
    10 C2B        -53.0690    38.8730   -31.5490 C.3          1 NAP301   0.0000
    11 O2B        -54.1350    39.7920   -31.4650 O.3          1 NAP301   0.0000
    12 C1B        -53.5950    37.4830   -31.2380 C.3          1 NAP301   0.0000
    13 N9A        -53.7270    37.2810   -29.7970 N.pl3        1 NAP301   0.0000
    14 C8A        -52.7300    37.2630   -28.8470 C.2          1 NAP301   0.0000
    15 N7A        -53.3150    37.0420   -27.6450 N.2          1 NAP301   0.0000
    16 C5A        -54.6540    36.9310   -27.8280 C.ar         1 NAP301   0.0000
    17 C6A        -55.7100    36.7090   -26.9570 C.ar         1 NAP301   0.0000
    18 N6A        -55.4970    36.5550   -25.6520 N.pl3        1 NAP301   0.0000
    19 N1A        -56.9910    36.6420   -27.4610 N.ar         1 NAP301   0.0000
    20 C2A        -57.2320    36.8000   -28.8120 C.ar         1 NAP301   0.0000
    21 N3A        -56.1790    37.0160   -29.6790 N.ar         1 NAP301   0.0000
    22 C4A        -54.9200    37.0820   -29.1830 C.ar         1 NAP301   0.0000
    23 O3         -47.8910    36.5980   -34.0120 O.3          1 NAP301   0.0000
    24 PN         -47.4650    35.9650   -35.4240 P.3          1 NAP301   0.0000
    25 O1N        -46.0540    36.3010   -35.6860 O.co2        1 NAP301   0.0000
    26 O2N        -48.5580    36.3010   -36.3770 O.co2        1 NAP301  -1.0000
    27 O5D        -47.5460    34.4090   -35.0280 O.3          1 NAP301   0.0000
    28 C5D        -48.7920    33.7770   -34.8430 C.3          1 NAP301   0.0000
    29 C4D        -48.5520    32.3000   -34.5660 C.3          1 NAP301   0.0000
    30 O4D        -47.8280    31.7730   -35.6540 O.3          1 NAP301   0.0000
    31 C3D        -47.6670    32.1300   -33.3430 C.3          1 NAP301   0.0000
    32 O3D        -48.0030    30.9170   -32.7090 O.3          1 NAP301   0.0000
    33 C2D        -46.2760    32.0250   -33.9190 C.3          1 NAP301   0.0000
    34 O2D        -45.4340    31.2740   -33.0760 O.3          1 NAP301   0.0000
    35 C1D        -46.5950    31.2630   -35.1900 C.3          1 NAP301   0.0000
    36 N1N        -45.5980    31.3860   -36.2540 N.ar         1 NAP301   1.0000
    37 C2N        -44.9720    32.5740   -36.4950 C.ar         1 NAP301   0.0000
    38 C3N        -44.0400    32.6640   -37.5300 C.ar         1 NAP301   0.0000
    39 C7N        -43.3170    33.9500   -37.8220 C.2          1 NAP301   0.0000
    40 O7N        -42.1270    33.8500   -38.5480 O.2          1 NAP301   0.0000
    41 N7N        -43.7780    35.1320   -37.3930 N.am         1 NAP301   0.0000
    42 C4N        -43.7550    31.5420   -38.3050 C.ar         1 NAP301   0.0000
    43 C5N        -44.4040    30.3360   -38.0530 C.ar         1 NAP301   0.0000
    44 C6N        -45.3410    30.2780   -37.0220 C.ar         1 NAP301   0.0000
    45 P2B        -53.9060    41.3770   -31.3010 P.3          1 NAP301   0.0000
    46 O1X        -55.1570    41.9040   -30.6380 O.co2        1 NAP301   0.0000
    47 O2X        -52.6920    41.6870   -30.4770 O.co2        1 NAP301  -1.0000
    48 O3X        -53.7520    42.0290   -32.6530 O.co2        1 NAP301  -1.0000
    49 H5B1       -50.3413    37.4153   -31.6932 H            1 NAP301   0.0000
    50 H5B2       -50.2340    36.1388   -32.7060 H            1 NAP301   0.0000
    51 H4B        -52.2672    36.6981   -33.7363 H            1 NAP301   0.0000
    52 H3B        -51.7938    39.2610   -33.1815 H            1 NAP301   0.0000
    53 H5         -53.9347    39.6044   -33.9345 H            1 NAP301   0.0000
    54 H2B        -52.3324    39.1237   -30.9208 H            1 NAP301   0.0000
    55 H1B        -54.4882    37.3632   -31.6715 H            1 NAP301   0.0000
    56 H8A        -51.7522    37.3899   -29.0140 H            1 NAP301   0.0000
    57 H6A1       -56.2676    36.3955   -25.0350 H            1 NAP301   0.0000
    58 H6A2       -54.5664    36.5988   -25.2887 H            1 NAP301   0.0000
    59 H2A        -58.1679    36.7580   -29.1618 H            1 NAP301   0.0000
    60 H5D1       -49.3471    33.8789   -35.6685 H            1 NAP301   0.0000
    61 H5D2       -49.2682    34.1919   -34.0677 H            1 NAP301   0.0000
    62 H4D        -49.4186    31.8153   -34.4477 H            1 NAP301   0.0000
    63 H3D        -47.7491    32.9067   -32.7185 H            1 NAP301   0.0000
    64 H16        -48.9639    30.9401   -32.4330 H            1 NAP301   0.0000
    65 H2D        -45.8903    32.9262   -34.1168 H            1 NAP301   0.0000
    66 H18        -44.7402    30.8092   -33.6261 H            1 NAP301   0.0000
    67 H1D        -46.7099    30.2953   -34.9658 H            1 NAP301   0.0000
    68 H2N        -45.1796    33.3751   -35.9337 H            1 NAP301   0.0000
    69 H7N1       -43.2754    35.9707   -37.6027 H            1 NAP301   0.0000
    70 H7N2       -44.6248    35.1759   -36.8630 H            1 NAP301   0.0000
    71 H4N        -43.0834    31.6027   -39.0434 H            1 NAP301   0.0000
    72 H5N        -44.2015    29.5252   -38.6022 H            1 NAP301   0.0000
    73 H6N        -45.8287    29.4239   -36.8411 H            1 NAP301   0.0000
@<TRIPOS>BOND
     1    1    2      ar
     2    1    3      ar
     3    1    4       1
     4    1   23       1
     5    4    5       1
     6    5    6       1
     7    6    7       1
     8    6    8       1
     9    7   12       1
    10    8    9       1
    11    8   10       1
    12   10   11       1
    13   10   12       1
    14   11   45       1
    15   12   13       1
    16   13   14       1
    17   13   22       1
    18   14   15       2
    19   15   16       1
    20   16   17      ar
    21   16   22      ar
    22   17   18       1
    23   17   19      ar
    24   19   20      ar
    25   20   21      ar
    26   21   22      ar
    27   23   24       1
    28   24   25      ar
    29   24   26      ar
    30   24   27       1
    31   27   28       1
    32   28   29       1
    33   29   30       1
    34   29   31       1
    35   30   35       1
    36   31   32       1
    37   31   33       1
    38   33   34       1
    39   33   35       1
    40   35   36       1
    41   36   37      ar
    42   36   44      ar
    43   37   38      ar
    44   38   39       1
    45   38   42      ar
    46   39   40       2
    47   39   41      am
    48   42   43      ar
    49   43   44      ar
    50   45   46      ar
    51   45   47      ar
    52   45   48      ar
    53   43   72       1
    54    5   49       1
    55    5   50       1
    56    6   51       1
    57    8   52       1
    58    9   53       1
    59   10   54       1
    60   12   55       1
    61   14   56       1
    62   18   57       1
    63   18   58       1
    64   20   59       1
    65   44   73       1
    66   28   60       1
    67   28   61       1
    68   29   62       1
    69   31   63       1
    70   32   64       1
    71   33   65       1
    72   34   66       1
    73   35   67       1
    74   37   68       1
    75   41   69       1
    76   41   70       1
    77   42   71       1
@<TRIPOS>SUBSTRUCTURE
     1 NAP301      1 GROUP             4 D     NAP     0 **** NAP D 301
