@<TRIPOS>MOLECULE
1mab_ADP_2_ligand
   39    41     1     0     0
SMALL
NO_CHARGES


@<TRIPOS>ATOM
     1 PB         -18.6660    20.5420    88.8850 P.3          1 ADP604   0.0000
     2 O1B        -17.4280    19.9500    88.3640 O.co2        1 ADP604   0.0000
     3 O2B        -18.7180    21.8920    89.4580 O.co2        1 ADP604  -1.0000
     4 O3B        -19.7690    20.4780    87.7730 O.co2        1 ADP604  -1.0000
     5 PA         -19.8410    20.1780    91.4570 P.3          1 ADP604   0.0000
     6 O1A        -18.9320    21.1500    92.0750 O.co2        1 ADP604   0.0000
     7 O2A        -21.2230    20.6830    91.4050 O.co2        1 ADP604  -1.0000
     8 O3A        -19.2230    19.6640    90.0590 O.3          1 ADP604   0.0000
     9 O5'        -19.7860    18.7770    92.2120 O.3          1 ADP604   0.0000
    10 C5'        -20.9820    17.9900    92.4390 C.3          1 ADP604   0.0000
    11 C4'        -21.1280    17.6520    93.9090 C.3          1 ADP604   0.0000
    12 O4'        -20.0940    18.3600    94.6430 O.3          1 ADP604   0.0000
    13 C3'        -22.3720    18.2490    94.5300 C.3          1 ADP604   0.0000
    14 O3'        -23.5580    17.6940    93.9820 O.3          1 ADP604   0.0000
    15 C2'        -22.0060    18.2930    96.0410 C.3          1 ADP604   0.0000
    16 O2'        -21.9020    17.1260    96.8430 O.3          1 ADP604   0.0000
    17 C1'        -20.5910    18.7640    95.9170 C.3          1 ADP604   0.0000
    18 N9         -20.4640    20.2350    96.0200 N.pl3        1 ADP604   0.0000
    19 C8         -20.3640    21.1120    94.9800 C.2          1 ADP604   0.0000
    20 N7         -20.2470    22.3660    95.3630 N.2          1 ADP604   0.0000
    21 C5         -20.2700    22.3320    96.7380 C.ar         1 ADP604   0.0000
    22 C6         -20.1870    23.2870    97.7990 C.ar         1 ADP604   0.0000
    23 N6         -20.0500    24.6130    97.6410 N.pl3        1 ADP604   0.0000
    24 N1         -20.2530    22.8500    99.0820 N.ar         1 ADP604   0.0000
    25 C2         -20.3970    21.5320    99.3650 C.ar         1 ADP604   0.0000
    26 N3         -20.4830    20.5390    98.4530 N.ar         1 ADP604   0.0000
    27 C4         -20.4130    21.0010    97.1630 C.ar         1 ADP604   0.0000
    28 H5'1       -20.9227    17.1426    91.9114 H            1 ADP604   0.0000
    29 H5'2       -21.7807    18.5128    92.1412 H            1 ADP604   0.0000
    30 H4'        -21.0779    16.6655    94.0649 H            1 ADP604   0.0000
    31 H3'        -22.3743    19.2050    94.2365 H            1 ADP604   0.0000
    32 H5         -24.2809    17.7042    94.6728 H            1 ADP604   0.0000
    33 H2'        -22.5583    18.9832    96.5085 H            1 ADP604   0.0000
    34 H7         -21.6581    17.3845    97.7777 H            1 ADP604   0.0000
    35 H1'        -20.0398    18.3369    96.6338 H            1 ADP604   0.0000
    36 H9         -20.3782    20.8300    94.0207 H            1 ADP604   0.0000
    37 H10        -20.0000    25.2095    98.4421 H            1 ADP604   0.0000
    38 H11        -19.9979    25.0043    96.7222 H            1 ADP604   0.0000
    39 H12        -20.4435    21.2731   100.3298 H            1 ADP604   0.0000
@<TRIPOS>BOND
     1    1    2      ar
     2    1    3      ar
     3    1    4      ar
     4    1    8       1
     5    5    6      ar
     6    5    7      ar
     7    5    8       1
     8    5    9       1
     9    9   10       1
    10   10   11       1
    11   11   12       1
    12   11   13       1
    13   12   17       1
    14   13   14       1
    15   13   15       1
    16   15   16       1
    17   15   17       1
    18   17   18       1
    19   18   19       1
    20   18   27       1
    21   19   20       2
    22   20   21       1
    23   21   22      ar
    24   21   27      ar
    25   22   23       1
    26   22   24      ar
    27   24   25      ar
    28   25   26      ar
    29   26   27      ar
    30   25   39       1
    31   23   38       1
    32   23   37       1
    33   10   28       1
    34   10   29       1
    35   11   30       1
    36   13   31       1
    37   14   32       1
    38   15   33       1
    39   16   34       1
    40   17   35       1
    41   19   36       1
@<TRIPOS>SUBSTRUCTURE
     1 ADP604      1 GROUP             4 B     ADP     0 **** ADP B 604
