@<TRIPOS>MOLECULE
1foa_UD1_1_ligand
   64    66     1     0     0
SMALL
NO_CHARGES


@<TRIPOS>ATOM
     1 C1'          2.9320    19.7170    14.6360 C.3          1 UD1449   0.0000
     2 C2'          2.4840    18.4610    15.3710 C.3          1 UD1449   0.0000
     3 C3'          1.2370    17.9610    14.6540 C.3          1 UD1449   0.0000
     4 C4'          0.1230    19.0250    14.6930 C.3          1 UD1449   0.0000
     5 C5'          0.6140    20.4430    14.3350 C.3          1 UD1449   0.0000
     6 C6'         -0.3490    21.4330    14.9750 C.3          1 UD1449   0.0000
     7 C7'          4.0990    17.0500    16.4860 C.2          1 UD1449   0.0000
     8 C8'          5.0600    15.8860    16.2990 C.3          1 UD1449   0.0000
     9 N2'          3.5340    17.4600    15.3490 N.am         1 UD1449   0.0000
    10 O1'          3.0560    19.4260    13.2590 O.3          1 UD1449   0.0000
    11 O3'          0.7830    16.7640    15.2680 O.3          1 UD1449   0.0000
    12 O4'         -0.9180    18.6640    13.7880 O.3          1 UD1449   0.0000
    13 O5'          1.9340    20.7200    14.8840 O.3          1 UD1449   0.0000
    14 O6'         -0.2670    22.7120    14.3800 O.3          1 UD1449   0.0000
    15 O7'          3.6890    17.3410    17.6290 O.2          1 UD1449   0.0000
    16 N1          -0.7010    19.4610     6.8590 N.pl3        1 UD1449   0.0000
    17 C2          -1.9080    19.8400     6.2690 C.2          1 UD1449   0.0000
    18 N3          -1.8460    21.0030     5.5350 N.pl3        1 UD1449   0.0000
    19 C4          -0.7270    21.8150     5.3290 C.2          1 UD1449   0.0000
    20 C5           0.4750    21.3620     5.9670 C.2          1 UD1449   0.0000
    21 C6           0.4510    20.2270     6.6940 C.2          1 UD1449   0.0000
    22 O2          -2.9490    19.1990     6.3870 O.2          1 UD1449   0.0000
    23 O4          -0.8320    22.8300     4.6370 O.2          1 UD1449   0.0000
    24 C1B         -0.6870    18.2260     7.6610 C.3          1 UD1449   0.0000
    25 C2B          0.4350    17.2430     7.3220 C.3          1 UD1449   0.0000
    26 O2'          0.1130    16.4570     6.1900 O.3          1 UD1449   0.0000
    27 C3B          0.5610    16.4640     8.6310 C.3          1 UD1449   0.0000
    28 C4B          0.1350    17.4690     9.7070 C.3          1 UD1449   0.0000
    29 O4B         -0.4970    18.5750     9.0160 O.3          1 UD1449   0.0000
    30 O3B         -0.2280    15.2710     8.6960 O.3          1 UD1449   0.0000
    31 C5B          1.2950    18.0340    10.4960 C.3          1 UD1449   0.0000
    32 O5B          2.2190    18.6830     9.6100 O.3          1 UD1449   0.0000
    33 PA           3.8010    18.5760     9.8270 P.3          1 UD1449   0.0000
    34 O1A          4.3820    19.0180     8.5410 O.co2        1 UD1449   0.0000
    35 O2A          4.1600    17.1640    10.1120 O.co2        1 UD1449  -1.0000
    36 O3A          4.1490    19.4880    10.9690 O.3          1 UD1449   0.0000
    37 PB           4.4570    19.2630    12.5000 P.3          1 UD1449   0.0000
    38 O1B          5.4520    20.2380    13.0050 O.co2        1 UD1449   0.0000
    39 O2B          4.8190    17.8480    12.7820 O.co2        1 UD1449  -1.0000
    40 H1'          3.8134    20.0222    14.9966 H            1 UD1449   0.0000
    41 H2'          2.2578    18.6891    16.3180 H            1 UD1449   0.0000
    42 H3'          1.4674    17.7683    13.7002 H            1 UD1449   0.0000
    43 H4'         -0.2578    19.0480    15.6174 H            1 UD1449   0.0000
    44 H5'          0.6221    20.5638    13.3424 H            1 UD1449   0.0000
    45 H6'1        -0.1292    21.5146    15.9471 H            1 UD1449   0.0000
    46 H6'2        -1.2820    21.0883    14.8720 H            1 UD1449   0.0000
    47 H8'1         5.4474    15.6281    17.1841 H            1 UD1449   0.0000
    48 H8'2         4.5681    15.1068    15.9106 H            1 UD1449   0.0000
    49 H8'3         5.7963    16.1579    15.6793 H            1 UD1449   0.0000
    50 H11          3.8359    17.0752    14.4768 H            1 UD1449   0.0000
    51 H12          0.7873    16.0227    14.5968 H            1 UD1449   0.0000
    52 H13         -0.6838    17.8028    13.3370 H            1 UD1449   0.0000
    53 H6'         -1.1568    23.1646    14.4386 H            1 UD1449   0.0000
    54 H15         -2.6964    21.3001     5.1007 H            1 UD1449   0.0000
    55 H16          1.3232    21.8834     5.8734 H            1 UD1449   0.0000
    56 H17          1.2959    19.9219     7.1335 H            1 UD1449   0.0000
    57 H1B         -1.5679    17.7628     7.5632 H            1 UD1449   0.0000
    58 H2B          1.2812    17.7473     7.1497 H            1 UD1449   0.0000
    59 H20          0.7944    16.6088     5.4740 H            1 UD1449   0.0000
    60 H3B          1.5214    16.2248     8.7739 H            1 UD1449   0.0000
    61 H4B         -0.5202    17.0405    10.3292 H            1 UD1449   0.0000
    62 H23          0.0466    14.6494     7.9624 H            1 UD1449   0.0000
    63 H5B1         1.7621    17.2916    10.9763 H            1 UD1449   0.0000
    64 H5B2         0.9518    18.6973    11.1610 H            1 UD1449   0.0000
@<TRIPOS>BOND
     1    1    2       1
     2    1   10       1
     3    1   13       1
     4    2    3       1
     5    2    9       1
     6    3    4       1
     7    3   11       1
     8    4    5       1
     9    4   12       1
    10    5    6       1
    11    5   13       1
    12    6   14       1
    13    7    8       1
    14    7    9      am
    15    7   15       2
    16   10   37       1
    17   16   17       1
    18   16   21       1
    19   16   24       1
    20   17   18       1
    21   17   22       2
    22   18   19       1
    23   19   20       1
    24   19   23       2
    25   20   21       2
    26   24   25       1
    27   24   29       1
    28   25   26       1
    29   25   27       1
    30   27   28       1
    31   27   30       1
    32   28   29       1
    33   28   31       1
    34   31   32       1
    35   32   33       1
    36   33   34      ar
    37   33   35      ar
    38   33   36       1
    39   36   37       1
    40   37   38      ar
    41   37   39      ar
    42    1   40       1
    43    2   41       1
    44    3   42       1
    45    4   43       1
    46    5   44       1
    47    6   45       1
    48    6   46       1
    49    8   47       1
    50    8   48       1
    51    8   49       1
    52    9   50       1
    53   11   51       1
    54   12   52       1
    55   14   53       1
    56   18   54       1
    57   20   55       1
    58   21   56       1
    59   24   57       1
    60   25   58       1
    61   26   59       1
    62   27   60       1
    63   28   61       1
    64   30   62       1
    65   31   63       1
    66   31   64       1
@<TRIPOS>SUBSTRUCTURE
     1 UD1449      1 GROUP             4 A     UD1     0 **** UD1 A 449
