@<TRIPOS>MOLECULE
3w5u_FAD_3_ligand
   84    89     1     0     0
SMALL
NO_CHARGES


@<TRIPOS>ATOM
     1 PA          20.4810    11.9000    40.5570 P.3          1 FAD401   0.0000
     2 O1A         20.9680    11.8440    39.1400 O.co2        1 FAD401   0.0000
     3 O2A         20.7260    10.6860    41.4260 O.co2        1 FAD401  -1.0000
     4 O5B         20.9770    13.2270    41.2710 O.3          1 FAD401   0.0000
     5 C5B         20.8930    13.2710    42.6960 C.3          1 FAD401   0.0000
     6 C4B         22.1230    13.9580    43.2650 C.3          1 FAD401   0.0000
     7 O4B         22.0130    15.3730    43.0800 O.3          1 FAD401   0.0000
     8 C3B         22.1960    13.7110    44.7560 C.3          1 FAD401   0.0000
     9 O3B         23.2160    12.7610    45.0230 O.3          1 FAD401   0.0000
    10 C2B         22.5660    15.0550    45.3470 C.3          1 FAD401   0.0000
    11 O2B         23.9870    15.1750    45.3560 O.3          1 FAD401   0.0000
    12 C1B         21.9870    16.0400    44.3520 C.3          1 FAD401   0.0000
    13 N9A         20.5750    16.2970    44.7530 N.pl3        1 FAD401   0.0000
    14 C8A         19.6250    15.3670    45.0210 C.2          1 FAD401   0.0000
    15 N7A         18.4400    15.9290    45.3780 N.2          1 FAD401   0.0000
    16 C5A         18.6260    17.2640    45.3400 C.ar         1 FAD401   0.0000
    17 C6A         17.7920    18.4680    45.6090 C.ar         1 FAD401   0.0000
    18 N6A         16.4880    18.3510    45.9760 N.pl3        1 FAD401   0.0000
    19 N1A         18.3780    19.6950    45.4710 N.ar         1 FAD401   0.0000
    20 C2A         19.6810    19.8310    45.1190 C.ar         1 FAD401   0.0000
    21 N3A         20.4850    18.7780    44.8410 N.ar         1 FAD401   0.0000
    22 C4A         20.0270    17.4990    44.9270 C.ar         1 FAD401   0.0000
    23 N1          11.8190     8.9610    44.5410 N.2          1 FAD401   0.0000
    24 C2          10.5830     9.1950    44.0630 C.2          1 FAD401   0.0000
    25 O2          10.4410    10.2000    43.3110 O.2          1 FAD401   0.0000
    26 N3           9.5350     8.3950    44.3490 N.pl3        1 FAD401   0.0000
    27 C4           9.6400     7.3380    45.1570 C.2          1 FAD401   0.0000
    28 O4           8.6790     6.5680    45.4190 O.2          1 FAD401   0.0000
    29 C4X         10.9590     7.0280    45.7030 C.2          1 FAD401   0.0000
    30 N5          11.1530     5.9820    46.5450 N.2          1 FAD401   0.0000
    31 C5X         12.3730     5.6950    47.0860 C.ar         1 FAD401   0.0000
    32 C6          12.5440     4.5730    47.9150 C.ar         1 FAD401   0.0000
    33 C7          13.7900     4.2800    48.4610 C.ar         1 FAD401   0.0000
    34 C7M         14.0120     3.1020    49.3870 C.3          1 FAD401   0.0000
    35 C8          14.9350     5.1750    48.1230 C.ar         1 FAD401   0.0000
    36 C8M         16.3010     4.8960    48.6880 C.3          1 FAD401   0.0000
    37 C9          14.7660     6.2490    47.2630 C.ar         1 FAD401   0.0000
    38 C9A         13.5270     6.5470    46.7320 C.ar         1 FAD401   0.0000
    39 N10         13.3460     7.6730    45.8800 N.pl3        1 FAD401   0.0000
    40 C10         12.0640     7.9180    45.3390 C.2          1 FAD401   0.0000
    41 C1'         14.4540     8.5590    45.5180 C.3          1 FAD401   0.0000
    42 C2'         14.9390     8.0630    44.1690 C.3          1 FAD401   0.0000
    43 O2'         15.3350     6.6740    44.2980 O.3          1 FAD401   0.0000
    44 C3'         16.0310     8.9290    43.5510 C.3          1 FAD401   0.0000
    45 O3'         17.0780     9.0930    44.4910 O.3          1 FAD401   0.0000
    46 C4'         15.5300    10.3010    43.0880 C.3          1 FAD401   0.0000
    47 O4'         14.4600    10.0990    42.1460 O.3          1 FAD401   0.0000
    48 C5'         16.6560    11.1020    42.4150 C.3          1 FAD401   0.0000
    49 O5'         17.2770    10.2790    41.4040 O.3          1 FAD401   0.0000
    50 P           17.9060    10.9020    40.0680 P.3          1 FAD401   0.0000
    51 O1P         18.7380     9.8480    39.4030 O.co2        1 FAD401   0.0000
    52 O2P         16.8220    11.5430    39.2690 O.co2        1 FAD401  -1.0000
    53 O3P         18.8920    12.1100    40.5100 O.3          1 FAD401   0.0000
    54 H5B1        20.8383    12.3389    43.0540 H            1 FAD401   0.0000
    55 H5B2        20.0750    13.7797    42.9645 H            1 FAD401   0.0000
    56 H4B         22.9485    13.6144    42.8173 H            1 FAD401   0.0000
    57 H3B         21.3147    13.3967    45.1089 H            1 FAD401   0.0000
    58 H5          24.0835    13.2360    45.1706 H            1 FAD401   0.0000
    59 H2B         22.1775    15.1784    46.2601 H            1 FAD401   0.0000
    60 H7          24.2679    15.7522    46.1228 H            1 FAD401   0.0000
    61 H1B         22.5178    16.8871    44.3288 H            1 FAD401   0.0000
    62 H8A         19.7787    14.3806    44.9626 H            1 FAD401   0.0000
    63 H6A1        15.9428    19.1705    46.1527 H            1 FAD401   0.0000
    64 H6A2        16.0741    17.4455    46.0692 H            1 FAD401   0.0000
    65 H2A         20.0656    20.7523    45.0622 H            1 FAD401   0.0000
    66 H13          8.6461     8.6018    43.9402 H            1 FAD401   0.0000
    67 H14         11.7637     3.9802    48.1142 H            1 FAD401   0.0000
    68 H7M1        14.9725     3.0719    49.6638 H            1 FAD401   0.0000
    69 H7M2        13.4346     3.2016    50.1973 H            1 FAD401   0.0000
    70 H7M3        13.7755     2.2548    48.9112 H            1 FAD401   0.0000
    71 H8M1        16.9445     5.5885    48.3618 H            1 FAD401   0.0000
    72 H8M2        16.2604     4.9228    49.6868 H            1 FAD401   0.0000
    73 H8M3        16.6061     3.9912    48.3910 H            1 FAD401   0.0000
    74 H21         15.5537     6.8166    47.0236 H            1 FAD401   0.0000
    75 H1'1        15.1860     8.4998    46.1968 H            1 FAD401   0.0000
    76 H1'2        14.1380     9.5053    45.4503 H            1 FAD401   0.0000
    77 H2'         14.1561     8.0890    43.5474 H            1 FAD401   0.0000
    78 H25         14.5490     6.0846    44.1116 H            1 FAD401   0.0000
    79 H3'         16.3987     8.4468    42.7558 H            1 FAD401   0.0000
    80 H27         17.7983     9.6605    44.0920 H            1 FAD401   0.0000
    81 H4'         15.1857    10.8113    43.8761 H            1 FAD401   0.0000
    82 H29         14.6042     9.2386    41.6572 H            1 FAD401   0.0000
    83 H5'1        17.3367    11.3638    43.0992 H            1 FAD401   0.0000
    84 H5'2        16.2759    11.9242    41.9914 H            1 FAD401   0.0000
@<TRIPOS>BOND
     1    1    2      ar
     2    1    3      ar
     3    1    4       1
     4    1   53       1
     5    4    5       1
     6    5    6       1
     7    6    7       1
     8    6    8       1
     9    7   12       1
    10    8    9       1
    11    8   10       1
    12   10   11       1
    13   10   12       1
    14   12   13       1
    15   13   14       1
    16   13   22       1
    17   14   15       2
    18   15   16       1
    19   16   17      ar
    20   16   22      ar
    21   17   18       1
    22   17   19      ar
    23   19   20      ar
    24   20   21      ar
    25   21   22      ar
    26   23   24       1
    27   23   40       2
    28   24   25       2
    29   24   26       1
    30   26   27       1
    31   27   28       2
    32   27   29       1
    33   29   30       2
    34   29   40       1
    35   30   31       1
    36   31   32      ar
    37   31   38      ar
    38   32   33      ar
    39   33   34       1
    40   33   35      ar
    41   35   36       1
    42   35   37      ar
    43   37   38      ar
    44   38   39       1
    45   39   40       1
    46   39   41       1
    47   41   42       1
    48   42   43       1
    49   42   44       1
    50   44   45       1
    51   44   46       1
    52   46   47       1
    53   46   48       1
    54   48   49       1
    55   49   50       1
    56   50   51      ar
    57   50   52      ar
    58   50   53       1
    59   48   84       1
    60    5   54       1
    61    5   55       1
    62    6   56       1
    63    8   57       1
    64    9   58       1
    65   10   59       1
    66   11   60       1
    67   12   61       1
    68   14   62       1
    69   18   63       1
    70   18   64       1
    71   20   65       1
    72   26   66       1
    73   32   67       1
    74   34   68       1
    75   34   69       1
    76   34   70       1
    77   36   71       1
    78   36   72       1
    79   36   73       1
    80   37   74       1
    81   41   75       1
    82   41   76       1
    83   42   77       1
    84   43   78       1
    85   44   79       1
    86   45   80       1
    87   46   81       1
    88   47   82       1
    89   48   83       1
@<TRIPOS>SUBSTRUCTURE
     1 FAD401      1 GROUP             4 E     FAD     0 **** FAD E 401
