@<TRIPOS>MOLECULE
1tgy_URA_1_ligand
   12    12     1     0     0
SMALL
NO_CHARGES


@<TRIPOS>ATOM
     1 N1          55.4120    26.3530    33.3730 N.pl3        1 URA1255   0.0000
     2 C2          56.4630    27.2980    33.3130 C.2          1 URA1255   0.0000
     3 O2          56.9750    27.8430    34.2850 O.2          1 URA1255   0.0000
     4 N3          56.8990    27.5810    32.0260 N.pl3        1 URA1255   0.0000
     5 C4          56.4290    27.0490    30.8060 C.2          1 URA1255   0.0000
     6 O4          56.8440    27.3240    29.6630 O.2          1 URA1255   0.0000
     7 C5          55.3400    26.0800    30.9790 C.2          1 URA1255   0.0000
     8 C6          54.8780    25.7700    32.2220 C.2          1 URA1255   0.0000
     9 H1          55.0409    26.0952    34.2651 H            1 URA1255   0.0000
    10 H2          57.6413    28.2472    31.9538 H            1 URA1255   0.0000
    11 H3          54.9335    25.6433    30.1764 H            1 URA1255   0.0000
    12 H4          54.1356    25.1063    32.3130 H            1 URA1255   0.0000
@<TRIPOS>BOND
     1    1    2       1
     2    1    8       1
     3    2    3       2
     4    2    4       1
     5    4    5       1
     6    5    6       2
     7    5    7       1
     8    7    8       2
     9    1    9       1
    10    4   10       1
    11    7   11       1
    12    8   12       1
@<TRIPOS>SUBSTRUCTURE
     1 URA1255     1 GROUP             4 A     URA     0 **** URA A1255
