@<TRIPOS>MOLECULE
5dac_AES_4_ligand
   24    24     1     0     0
SMALL
NO_CHARGES


@<TRIPOS>ATOM
     1 C3          24.8390    42.7390    25.4660 C.ar         1 AES1403   0.0000
     2 C2          25.5510    43.0280    24.2880 C.ar         1 AES1403   0.0000
     3 C1          24.8880    43.1970    23.0550 C.ar         1 AES1403   0.0000
     4 S           25.8850    43.5560    21.5440 S.o2         1 AES1403   0.0000
     5 F           25.9730    45.0800    21.2140 F            1 AES1403   0.0000
     6 O1S         27.1770    42.9400    21.6930 O.2          1 AES1403   0.0000
     7 O2S         25.3680    42.8250    20.4180 O.2          1 AES1403   0.0000
     8 C6          23.4930    43.0520    23.0540 C.ar         1 AES1403   0.0000
     9 C5          22.7900    42.7640    24.2370 C.ar         1 AES1403   0.0000
    10 C4          23.4750    42.6090    25.4510 C.ar         1 AES1403   0.0000
    11 C7          22.7070    42.2790    26.7790 C.3          1 AES1403   0.0000
    12 C8          21.8930    43.4860    27.3270 C.3          1 AES1403   0.0000
    13 N8          21.1730    43.1330    28.5170 N.4          1 AES1403   1.0000
    14 H1          25.3353    42.6268    26.3269 H            1 AES1403   0.0000
    15 H2          26.5465    43.1153    24.3256 H            1 AES1403   0.0000
    16 H3          22.9893    43.1553    22.1963 H            1 AES1403   0.0000
    17 H4          21.7948    42.6690    24.2127 H            1 AES1403   0.0000
    18 H5          23.3730    42.0030    27.4720 H            1 AES1403   0.0000
    19 H6          22.0764    41.5231    26.6029 H            1 AES1403   0.0000
    20 H7          21.2420    43.7836    26.6287 H            1 AES1403   0.0000
    21 H8          22.5220    44.2345    27.5370 H            1 AES1403   0.0000
    22 H9          20.6609    43.9270    28.8446 H            1 AES1403   0.0000
    23 H10         20.5382    42.3876    28.3137 H            1 AES1403   0.0000
    24 H11         21.8182    42.8385    29.2220 H            1 AES1403   0.0000
@<TRIPOS>BOND
     1    1    2      ar
     2    1   10      ar
     3    2    3      ar
     4    3    4       1
     5    3    8      ar
     6    4    5       1
     7    4    6       2
     8    4    7       2
     9    8    9      ar
    10    9   10      ar
    11   10   11       1
    12   11   12       1
    13   12   13       1
    14    1   14       1
    15    2   15       1
    16    8   16       1
    17    9   17       1
    18   11   18       1
    19   11   19       1
    20   12   20       1
    21   12   21       1
    22   13   22       1
    23   13   23       1
    24   13   24       1
@<TRIPOS>SUBSTRUCTURE
     1 AES1403     1 GROUP             4 B     AES     0 **** AES B1403
