@<TRIPOS>MOLECULE
3h7u_NAP_1_ligand
   73    77     1     0     0
SMALL
NO_CHARGES


@<TRIPOS>ATOM
     1 PA           1.5050     5.9170    22.6220 P.3          1 NAP401   0.0000
     2 O1A          1.1430     6.3360    21.2510 O.co2        1 NAP401   0.0000
     3 O2A          1.5890     4.4930    22.9850 O.co2        1 NAP401  -1.0000
     4 O5B          0.5980     6.7430    23.6240 O.3          1 NAP401   0.0000
     5 C5B          0.7610     6.6370    25.0290 C.3          1 NAP401   0.0000
     6 C4B         -0.1220     7.6810    25.6780 C.3          1 NAP401   0.0000
     7 O4B         -1.4990     7.3680    25.4480 O.3          1 NAP401   0.0000
     8 C3B          0.0510     7.8090    27.1870 C.3          1 NAP401   0.0000
     9 O3B         -0.0760     9.1660    27.5410 O.3          1 NAP401   0.0000
    10 C2B         -1.1080     6.9950    27.7350 C.3          1 NAP401   0.0000
    11 O2B         -1.5030     7.4490    29.0250 O.3          1 NAP401   0.0000
    12 C1B         -2.1870     7.2260    26.6880 C.3          1 NAP401   0.0000
    13 N9A         -3.1290     6.1180    26.5170 N.pl3        1 NAP401   0.0000
    14 C8A         -2.8210     4.7940    26.4550 C.2          1 NAP401   0.0000
    15 N7A         -3.9250     4.0720    26.2000 N.2          1 NAP401   0.0000
    16 C5A         -4.9400     4.9570    26.0440 C.ar         1 NAP401   0.0000
    17 C6A         -6.2920     4.7950    25.7660 C.ar         1 NAP401   0.0000
    18 N6A         -6.8380     3.6050    25.6060 N.pl3        1 NAP401   0.0000
    19 N1A         -7.0540     5.9250    25.7000 N.ar         1 NAP401   0.0000
    20 C2A         -6.5360     7.1690    25.8740 C.ar         1 NAP401   0.0000
    21 N3A         -5.2110     7.3580    26.1390 N.ar         1 NAP401   0.0000
    22 C4A         -4.4500     6.2360    26.2240 C.ar         1 NAP401   0.0000
    23 O3           2.9190     6.6240    22.9530 O.3          1 NAP401   0.0000
    24 PN           4.4770     6.2730    23.1370 P.3          1 NAP401   0.0000
    25 O1N          4.7040     5.8220    24.5500 O.co2        1 NAP401   0.0000
    26 O2N          5.2110     7.4310    22.5640 O.co2        1 NAP401  -1.0000
    27 O5D          4.7680     5.0560    22.1380 O.3          1 NAP401   0.0000
    28 C5D          4.5580     3.7140    22.5310 C.3          1 NAP401   0.0000
    29 C4D          5.8720     3.0210    22.8760 C.3          1 NAP401   0.0000
    30 O4D          6.6880     2.9320    21.7100 O.3          1 NAP401   0.0000
    31 C3D          6.7550     3.7070    23.9020 C.3          1 NAP401   0.0000
    32 O3D          6.2550     3.6030    25.2280 O.3          1 NAP401   0.0000
    33 C2D          8.0500     2.9610    23.6360 C.3          1 NAP401   0.0000
    34 O2D          7.9600     1.6500    24.2110 O.3          1 NAP401   0.0000
    35 C1D          8.0560     2.9180    22.1010 C.3          1 NAP401   0.0000
    36 N1N          8.7530     4.0920    21.5220 N.ar         1 NAP401   1.0000
    37 C2N          9.9480     3.8800    20.9040 C.ar         1 NAP401   0.0000
    38 C3N         10.6500     4.9250    20.3510 C.ar         1 NAP401   0.0000
    39 C7N         11.8970     4.6330    19.6050 C.2          1 NAP401   0.0000
    40 O7N         12.6920     5.6790    19.3150 O.2          1 NAP401   0.0000
    41 N7N         12.2030     3.4140    19.2160 N.am         1 NAP401   0.0000
    42 C4N         10.1460     6.2240    20.4270 C.ar         1 NAP401   0.0000
    43 C5N          8.9030     6.4250    21.0250 C.ar         1 NAP401   0.0000
    44 C6N          8.2040     5.3500    21.5600 C.ar         1 NAP401   0.0000
    45 P2B         -1.5120     6.4370    30.2730 P.3          1 NAP401   0.0000
    46 O1X         -0.1320     5.8780    30.4240 O.co2        1 NAP401   0.0000
    47 O2X         -1.8700     7.3280    31.4050 O.co2        1 NAP401  -1.0000
    48 O3X         -2.5660     5.3650    29.9700 O.co2        1 NAP401  -1.0000
    49 H5B1         1.7168     6.8002    25.2737 H            1 NAP401   0.0000
    50 H5B2         0.4897     5.7244    25.3349 H            1 NAP401   0.0000
    51 H4B          0.0757     8.5676    25.2599 H            1 NAP401   0.0000
    52 H3B          0.9298     7.4364    27.4850 H            1 NAP401   0.0000
    53 H5           0.0355     9.2644    28.5299 H            1 NAP401   0.0000
    54 H2B         -0.8631     6.0261    27.7702 H            1 NAP401   0.0000
    55 H1B         -2.6869     8.0667    26.8964 H            1 NAP401   0.0000
    56 H8A         -1.9050     4.4133    26.5811 H            1 NAP401   0.0000
    57 H6A1        -7.8147     3.5257    25.4068 H            1 NAP401   0.0000
    58 H6A2        -6.2752     2.7821    25.6839 H            1 NAP401   0.0000
    59 H2A         -7.1393     7.9637    25.8063 H            1 NAP401   0.0000
    60 H5D1         4.1176     3.2208    21.7808 H            1 NAP401   0.0000
    61 H5D2         3.9625     3.6999    23.3342 H            1 NAP401   0.0000
    62 H4D          5.6704     2.0953    23.1961 H            1 NAP401   0.0000
    63 H3D          6.8662     4.6707    23.6592 H            1 NAP401   0.0000
    64 H16          5.6544     4.3793    25.4196 H            1 NAP401   0.0000
    65 H2D          8.8396     3.4619    23.9905 H            1 NAP401   0.0000
    66 H18          8.8100     1.1519    24.0398 H            1 NAP401   0.0000
    67 H1D          8.4912     2.0746    21.7860 H            1 NAP401   0.0000
    68 H2N         10.3194     2.9530    20.8518 H            1 NAP401   0.0000
    69 H7N1        13.0517     3.2476    18.7141 H            1 NAP401   0.0000
    70 H7N2        11.5868     2.6539    19.4223 H            1 NAP401   0.0000
    71 H4N         10.6661     6.9952    20.0599 H            1 NAP401   0.0000
    72 H5N          8.5135     7.3450    21.0690 H            1 NAP401   0.0000
    73 H6N          7.3037     5.4920    21.9715 H            1 NAP401   0.0000
@<TRIPOS>BOND
     1    1    2      ar
     2    1    3      ar
     3    1    4       1
     4    1   23       1
     5    4    5       1
     6    5    6       1
     7    6    7       1
     8    6    8       1
     9    7   12       1
    10    8    9       1
    11    8   10       1
    12   10   11       1
    13   10   12       1
    14   11   45       1
    15   12   13       1
    16   13   14       1
    17   13   22       1
    18   14   15       2
    19   15   16       1
    20   16   17      ar
    21   16   22      ar
    22   17   18       1
    23   17   19      ar
    24   19   20      ar
    25   20   21      ar
    26   21   22      ar
    27   23   24       1
    28   24   25      ar
    29   24   26      ar
    30   24   27       1
    31   27   28       1
    32   28   29       1
    33   29   30       1
    34   29   31       1
    35   30   35       1
    36   31   32       1
    37   31   33       1
    38   33   34       1
    39   33   35       1
    40   35   36       1
    41   36   37      ar
    42   36   44      ar
    43   37   38      ar
    44   38   39       1
    45   38   42      ar
    46   39   40       2
    47   39   41      am
    48   42   43      ar
    49   43   44      ar
    50   45   46      ar
    51   45   47      ar
    52   45   48      ar
    53   43   72       1
    54    5   49       1
    55    5   50       1
    56    6   51       1
    57    8   52       1
    58    9   53       1
    59   10   54       1
    60   12   55       1
    61   14   56       1
    62   18   57       1
    63   18   58       1
    64   20   59       1
    65   44   73       1
    66   28   60       1
    67   28   61       1
    68   29   62       1
    69   31   63       1
    70   32   64       1
    71   33   65       1
    72   34   66       1
    73   35   67       1
    74   37   68       1
    75   41   69       1
    76   41   70       1
    77   42   71       1
@<TRIPOS>SUBSTRUCTURE
     1 NAP401      1 GROUP             4 A     NAP     0 **** NAP A 401
