@<TRIPOS>MOLECULE
4c13_UML_1_ligand
  119   121     1     0     0
SMALL
NO_CHARGES


@<TRIPOS>ATOM
     1 N1         -22.4790    -2.1360    19.3380 N.pl3        1 UML598   0.0000
     2 C2         -22.8810    -3.1900    20.2190 C.2          1 UML598   0.0000
     3 N3         -24.0500    -3.0800    20.8870 N.pl3        1 UML598   0.0000
     4 C4         -24.8000    -1.9320    20.7790 C.2          1 UML598   0.0000
     5 C5         -24.4310    -0.8640    19.9410 C.2          1 UML598   0.0000
     6 C6         -23.2360    -0.9970    19.2230 C.2          1 UML598   0.0000
     7 O2         -22.1760    -4.3430    20.3810 O.2          1 UML598   0.0000
     8 O4         -25.9430    -1.8650    21.4950 O.2          1 UML598   0.0000
     9 C1*        -21.2330    -2.2610    18.5590 C.3          1 UML598   0.0000
    10 C2*        -21.4720    -2.1380    17.0380 C.3          1 UML598   0.0000
    11 O2'        -21.8810    -3.3640    16.4060 O.3          1 UML598   0.0000
    12 C3*        -20.1200    -1.6850    16.5670 C.3          1 UML598   0.0000
    13 C4*        -19.5510    -0.8670    17.7150 C.3          1 UML598   0.0000
    14 O4*        -20.3330    -1.1980    18.8870 O.3          1 UML598   0.0000
    15 O3*        -19.3180    -2.8570    16.4210 O.3          1 UML598   0.0000
    16 C5*        -19.6350     0.6090    17.4480 C.3          1 UML598   0.0000
    17 O5*        -21.0260     0.9110    17.4060 O.3          1 UML598   0.0000
    18 PA         -21.5230     2.3660    17.0410 P.3          1 UML598   0.0000
    19 O1A        -23.0350     2.3590    17.2490 O.co2        1 UML598   0.0000
    20 O2A        -20.6710     3.5140    17.5370 O.co2        1 UML598  -1.0000
    21 O3A        -21.3470     2.2840    15.4050 O.3          1 UML598   0.0000
    22 PB         -20.6680     3.4910    14.6860 P.3          1 UML598   0.0000
    23 O1B        -19.1460     3.5100    14.8560 O.co2        1 UML598   0.0000
    24 O2B        -21.3830     4.7740    15.1270 O.co2        1 UML598  -1.0000
    25 C1'        -20.0660     2.6010    12.2140 C.3          1 UML598   0.0000
    26 C2'        -20.2160     3.0910    10.7750 C.3          1 UML598   0.0000
    27 C3'        -21.5740     2.6380    10.2410 C.3          1 UML598   0.0000
    28 C4'        -21.6490     1.1160    10.3920 C.3          1 UML598   0.0000
    29 C5'        -21.4780     0.6780    11.8760 C.3          1 UML598   0.0000
    30 C6'        -21.4090    -0.8290    12.1210 C.3          1 UML598   0.0000
    31 C7'        -19.3370     5.3420    10.2280 C.2          1 UML598   0.0000
    32 C8'        -19.5160     6.8310    10.4040 C.3          1 UML598   0.0000
    33 C18        -22.6570     4.0680     8.6190 C.3          1 UML598   0.0000
    34 C19        -22.0890     4.8980     7.5100 C.2          1 UML598   0.0000
    35 C20        -24.0600     3.5540     8.1850 C.3          1 UML598   0.0000
    36 O1'        -20.9630     3.3090    13.0650 O.3          1 UML598   0.0000
    37 O3'        -21.7310     2.9870     8.8730 O.3          1 UML598   0.0000
    38 O4'        -22.8430     0.6180     9.7820 O.3          1 UML598   0.0000
    39 O5'        -20.2310     1.1820    12.3570 O.3          1 UML598   0.0000
    40 O6'        -20.3450    -1.4110    11.3260 O.3          1 UML598   0.0000
    41 O7'        -18.4080     4.8880     9.5690 O.2          1 UML598   0.0000
    42 O18        -22.8190     5.6810     6.9730 O.2          1 UML598   0.0000
    43 N2'        -20.2150     4.5690    10.8370 N.am         1 UML598   0.0000
    44 N4         -20.8050     4.7950     7.1370 N.am         1 UML598   0.0000
    45 C21        -20.2020     5.5190     6.0040 C.3          1 UML598   0.0000
    46 C22        -19.5010     4.4930     5.1470 C.2          1 UML598   0.0000
    47 O19        -18.9880     3.5300     5.7030 O.2          1 UML598   0.0000
    48 C23        -19.1200     6.5550     6.3500 C.3          1 UML598   0.0000
    49 N5         -19.4270     4.6550     3.8150 N.am         1 UML598   0.0000
    50 C24        -18.7460     3.6690     2.9420 C.3          1 UML598   0.0000
    51 C28        -19.2730     2.2460     3.1110 C.2          1 UML598   0.0000
    52 O23        -20.4910     2.0860     3.4260 O.co2        1 UML598   0.0000
    53 C25        -18.9460     4.1030     1.4610 C.3          1 UML598   0.0000
    54 C26        -20.4510     4.2230     1.0660 C.3          1 UML598   0.0000
    55 C27        -20.8600     5.6960     1.0910 C.2          1 UML598   0.0000
    56 O20        -20.2040     6.4600     1.8100 O.2          1 UML598   0.0000
    57 O22        -18.5020     1.2530     2.8850 O.co2        1 UML598  -1.0000
    58 N30        -21.9370     6.1120     0.3690 N.am         1 UML598   0.0000
    59 C32        -22.3790     7.5710     0.3800 C.3          1 UML598   0.0000
    60 C31        -22.5890     8.2070     1.7450 C.2          1 UML598   0.0000
    61 O38        -22.1850     9.3600     2.0550 O.co2        1 UML598   0.0000
    62 C33        -23.7490     7.6110    -0.3150 C.3          1 UML598   0.0000
    63 C34        -24.3110     9.0470    -0.4970 C.3          1 UML598   0.0000
    64 C35        -25.5660     9.0030    -1.3770 C.3          1 UML598   0.0000
    65 C36        -26.7790     8.2730    -0.7520 C.3          1 UML598   0.0000
    66 N39        -27.8360     8.1150    -1.7500 N.4          1 UML598   1.0000
    67 O37        -23.2250     7.5530     2.5840 O.co2        1 UML598  -1.0000
    68 H1         -24.3704    -3.8339    21.4606 H            1 UML598   0.0000
    69 H2         -24.9982    -0.0443    19.8614 H            1 UML598   0.0000
    70 H3         -22.9323    -0.2572    18.6226 H            1 UML598   0.0000
    71 H1*        -20.7999    -3.1398    18.7595 H            1 UML598   0.0000
    72 H2*        -22.1487    -1.4238    16.8592 H            1 UML598   0.0000
    73 H2'        -21.4898    -4.1404    16.9001 H            1 UML598   0.0000
    74 H3*        -20.1738    -1.1575    15.7192 H            1 UML598   0.0000
    75 H4*        -18.5968    -1.1246    17.8671 H            1 UML598   0.0000
    76 H9         -19.6178    -3.5499    17.0768 H            1 UML598   0.0000
    77 H5*1       -19.2029     0.8309    16.5739 H            1 UML598   0.0000
    78 H5*2       -19.1881     1.1224    18.1806 H            1 UML598   0.0000
    79 H1'        -19.1369     2.8240    12.5092 H            1 UML598   0.0000
    80 H13        -19.4711     2.7535    10.1994 H            1 UML598   0.0000
    81 H3'        -22.3022     3.0626    10.7790 H            1 UML598   0.0000
    82 H4'        -20.8783     0.7329     9.8829 H            1 UML598   0.0000
    83 H5'        -22.2214     1.0659    12.4209 H            1 UML598   0.0000
    84 H6'1       -22.2807    -1.2467    11.8647 H            1 UML598   0.0000
    85 H6'2       -21.2299    -0.9994    13.0900 H            1 UML598   0.0000
    86 H8'1       -20.3228     7.0053    10.9686 H            1 UML598   0.0000
    87 H8'2       -18.7073     7.2134    10.8510 H            1 UML598   0.0000
    88 H8'3       -19.6364     7.2604     9.5089 H            1 UML598   0.0000
    89 H22        -22.7478     4.6290     9.4419 H            1 UML598   0.0000
    90 H23        -24.4522     2.9972     8.9172 H            1 UML598   0.0000
    91 H24        -24.6588     4.3338     8.0021 H            1 UML598   0.0000
    92 H25        -23.9708     3.0007     7.3568 H            1 UML598   0.0000
    93 H26        -22.6027    -0.0267     9.0563 H            1 UML598   0.0000
    94 H6'        -19.4722    -0.9953    11.5818 H            1 UML598   0.0000
    95 H28        -20.9294     5.0126    11.3781 H            1 UML598   0.0000
    96 H29        -20.2152     4.1839     7.6649 H            1 UML598   0.0000
    97 H30        -20.9239     5.9593     5.4701 H            1 UML598   0.0000
    98 H31        -18.7850     6.9806     5.5094 H            1 UML598   0.0000
    99 H32        -19.5091     7.2568     6.9467 H            1 UML598   0.0000
   100 H33        -18.3621     6.1015     6.8190 H            1 UML598   0.0000
   101 H34        -19.8434     5.4642     3.4006 H            1 UML598   0.0000
   102 H35        -17.7679     3.6766     3.1501 H            1 UML598   0.0000
   103 H36        -18.5127     3.4246     0.8676 H            1 UML598   0.0000
   104 H37        -18.5081     4.9919     1.3263 H            1 UML598   0.0000
   105 H38        -21.0099     3.7094     1.7170 H            1 UML598   0.0000
   106 H39        -20.5862     3.8537     0.1466 H            1 UML598   0.0000
   107 H40        -22.4472     5.4485    -0.1783 H            1 UML598   0.0000
   108 H41        -21.7262     8.1186    -0.1434 H            1 UML598   0.0000
   109 H42        -24.3979     7.0847     0.2345 H            1 UML598   0.0000
   110 H43        -23.6582     7.1901    -1.2176 H            1 UML598   0.0000
   111 H44        -23.6190     9.6220    -0.9334 H            1 UML598   0.0000
   112 H45        -24.5453     9.4281     0.3973 H            1 UML598   0.0000
   113 H46        -25.3302     8.5379    -2.2303 H            1 UML598   0.0000
   114 H47        -25.8390     9.9444    -1.5750 H            1 UML598   0.0000
   115 H48        -27.1273     8.8084     0.0174 H            1 UML598   0.0000
   116 H49        -26.4920     7.3715    -0.4280 H            1 UML598   0.0000
   117 H50        -28.6154     7.6428    -1.3382 H            1 UML598   0.0000
   118 H51        -28.1254     9.0155    -2.0745 H            1 UML598   0.0000
   119 H52        -27.4901     7.5786    -2.5198 H            1 UML598   0.0000
@<TRIPOS>BOND
     1    1    2       1
     2    1    6       1
     3    1    9       1
     4    2    3       1
     5    2    7       2
     6    3    4       1
     7    4    5       1
     8    4    8       2
     9    5    6       2
    10    9   10       1
    11    9   14       1
    12   10   11       1
    13   10   12       1
    14   12   13       1
    15   12   15       1
    16   13   14       1
    17   13   16       1
    18   16   17       1
    19   17   18       1
    20   18   19      ar
    21   18   20      ar
    22   18   21       1
    23   21   22       1
    24   22   23      ar
    25   22   24      ar
    26   22   36       1
    27   25   26       1
    28   25   36       1
    29   25   39       1
    30   26   27       1
    31   26   43       1
    32   27   28       1
    33   27   37       1
    34   28   29       1
    35   28   38       1
    36   29   30       1
    37   29   39       1
    38   30   40       1
    39   31   32       1
    40   31   41       2
    41   31   43      am
    42   33   34       1
    43   33   35       1
    44   33   37       1
    45   34   42       2
    46   34   44      am
    47   44   45       1
    48   45   46       1
    49   45   48       1
    50   46   47       2
    51   46   49      am
    52   49   50       1
    53   50   51       1
    54   50   53       1
    55   51   52      ar
    56   51   57      ar
    57   53   54       1
    58   54   55       1
    59   55   56       2
    60   55   58      am
    61   58   59       1
    62   59   60       1
    63   59   62       1
    64   60   61      ar
    65   60   67      ar
    66   62   63       1
    67   63   64       1
    68   64   65       1
    69   65   66       1
    70    3   68       1
    71    5   69       1
    72    6   70       1
    73    9   71       1
    74   10   72       1
    75   11   73       1
    76   12   74       1
    77   13   75       1
    78   15   76       1
    79   16   77       1
    80   16   78       1
    81   66  118       1
    82   66  117       1
    83   25   79       1
    84   26   80       1
    85   27   81       1
    86   28   82       1
    87   29   83       1
    88   30   84       1
    89   30   85       1
    90   32   86       1
    91   32   87       1
    92   32   88       1
    93   33   89       1
    94   35   90       1
    95   35   91       1
    96   35   92       1
    97   38   93       1
    98   40   94       1
    99   43   95       1
   100   44   96       1
   101   45   97       1
   102   48   98       1
   103   48   99       1
   104   48  100       1
   105   49  101       1
   106   50  102       1
   107   65  116       1
   108   53  103       1
   109   53  104       1
   110   54  105       1
   111   54  106       1
   112   58  107       1
   113   59  108       1
   114   65  115       1
   115   62  109       1
   116   62  110       1
   117   63  111       1
   118   63  112       1
   119   64  113       1
   120   64  114       1
   121   66  119       1
@<TRIPOS>SUBSTRUCTURE
     1 UML598      1 GROUP             4 A     UML     0 **** UML A 598
