@<TRIPOS>MOLECULE
3cb2_GDP_1_ligand
   40    42     1     0     0
SMALL
NO_CHARGES


@<TRIPOS>ATOM
     1 PB          12.3370    15.6270    15.2190 P.3          1 GDP500   0.0000
     2 O1B         12.3920    15.9440    13.7420 O.co2        1 GDP500   0.0000
     3 O2B         11.8230    16.8120    15.9940 O.co2        1 GDP500  -1.0000
     4 O3B         11.4430    14.4360    15.4330 O.co2        1 GDP500  -1.0000
     5 O3A         13.7800    15.1890    15.7900 O.3          1 GDP500   0.0000
     6 PA          15.1050    16.0870    15.6520 P.3          1 GDP500   0.0000
     7 O1A         14.8750    17.2830    14.7810 O.co2        1 GDP500   0.0000
     8 O2A         15.6380    16.4610    17.0030 O.co2        1 GDP500  -1.0000
     9 O5'         16.0620    15.0520    14.8620 O.3          1 GDP500   0.0000
    10 C5'         17.1120    14.3100    15.4710 C.3          1 GDP500   0.0000
    11 C4'         18.3430    14.5140    14.5950 C.3          1 GDP500   0.0000
    12 O4'         18.5250    15.9060    14.3360 O.3          1 GDP500   0.0000
    13 C3'         19.6290    14.1030    15.2820 C.3          1 GDP500   0.0000
    14 O3'         20.5300    13.7610    14.2180 O.3          1 GDP500   0.0000
    15 C2'         20.0680    15.3700    16.0100 C.3          1 GDP500   0.0000
    16 O2'         21.4710    15.4400    16.2290 O.3          1 GDP500   0.0000
    17 C1'         19.6930    16.4170    14.9900 C.3          1 GDP500   0.0000
    18 N9          19.3530    17.7680    15.5010 N.pl3        1 GDP500   0.0000
    19 C8          18.3720    18.1050    16.3540 C.2          1 GDP500   0.0000
    20 N7          18.3470    19.4480    16.5490 N.2          1 GDP500   0.0000
    21 C5          19.3340    19.9860    15.8030 C.2          1 GDP500   0.0000
    22 C6          19.8680    21.3360    15.5140 C.2          1 GDP500   0.0000
    23 O6          19.3580    22.3430    16.0390 O.2          1 GDP500   0.0000
    24 N1          20.8990    21.4540    14.6570 N.pl3        1 GDP500   0.0000
    25 C2          21.4640    20.3890    14.0570 C.2          1 GDP500   0.0000
    26 N2          22.5070    20.5760    13.2120 N.pl3        1 GDP500   0.0000
    27 N3          21.0240    19.1250    14.2730 N.2          1 GDP500   0.0000
    28 C4          19.9880    18.8700    15.1120 C.2          1 GDP500   0.0000
    29 H5'1        16.8724    13.3400    15.5113 H            1 GDP500   0.0000
    30 H5'2        17.2848    14.6493    16.3957 H            1 GDP500   0.0000
    31 H4'         18.2387    14.0153    13.7345 H            1 GDP500   0.0000
    32 H3'         19.4884    13.3396    15.9124 H            1 GDP500   0.0000
    33 H5          20.4373    12.7890    14.0022 H            1 GDP500   0.0000
    34 H2'         19.5601    15.4942    16.8624 H            1 GDP500   0.0000
    35 H7          21.6926    15.0180    17.1081 H            1 GDP500   0.0000
    36 H1'         20.4314    16.4985    14.3206 H            1 GDP500   0.0000
    37 H9          17.7460    17.4558    16.7861 H            1 GDP500   0.0000
    38 H10         21.2586    22.3658    14.4586 H            1 GDP500   0.0000
    39 H11         22.9328    19.7911    12.7620 H            1 GDP500   0.0000
    40 H12         22.8507    21.4989    13.0386 H            1 GDP500   0.0000
@<TRIPOS>BOND
     1    1    2      ar
     2    1    3      ar
     3    1    4      ar
     4    1    5       1
     5    5    6       1
     6    6    7      ar
     7    6    8      ar
     8    6    9       1
     9    9   10       1
    10   10   11       1
    11   11   12       1
    12   11   13       1
    13   12   17       1
    14   13   14       1
    15   13   15       1
    16   15   16       1
    17   15   17       1
    18   17   18       1
    19   18   19       1
    20   18   28       1
    21   19   20       2
    22   20   21       1
    23   21   22       1
    24   21   28       2
    25   22   23       2
    26   22   24       1
    27   24   25       1
    28   25   26       1
    29   25   27       2
    30   27   28       1
    31   26   40       1
    32   26   39       1
    33   24   38       1
    34   10   29       1
    35   10   30       1
    36   11   31       1
    37   13   32       1
    38   14   33       1
    39   15   34       1
    40   16   35       1
    41   17   36       1
    42   19   37       1
@<TRIPOS>SUBSTRUCTURE
     1 GDP500      1 GROUP             4 A     GDP     0 **** GDP A 500
