@<TRIPOS>MOLECULE
5c8y_ACP_1_ligand
   45    47     1     0     0
SMALL
NO_CHARGES


@<TRIPOS>ATOM
     1 PG          -7.9770   -49.9490    94.0780 P.3          1 ACP401   0.0000
     2 O1G         -8.9440   -50.8260    93.1350 O.co2        1 ACP401   0.0000
     3 O2G         -7.1840   -49.0450    93.2430 O.co2        1 ACP401  -1.0000
     4 O3G         -6.9290   -50.8830    94.8440 O.co2        1 ACP401  -1.0000
     5 PB         -10.4270   -49.8580    95.7300 P.3          1 ACP401   0.0000
     6 O1B        -11.7320   -49.4050    94.9270 O.co2        1 ACP401   0.0000
     7 O2B        -10.1110   -51.2460    95.3840 O.co2        1 ACP401  -1.0000
     8 C3B         -8.9320   -48.9800    95.2750 C.3          1 ACP401   0.0000
     9 PA          -9.9250   -50.8900    98.1430 P.3          1 ACP401   0.0000
    10 O1A         -8.6240   -51.0940    97.4530 O.co2        1 ACP401   0.0000
    11 O2A        -10.7480   -52.0460    98.5710 O.co2        1 ACP401  -1.0000
    12 O3A        -10.7580   -49.8830    97.2690 O.3          1 ACP401   0.0000
    13 O5'         -9.7400   -49.9780    99.4230 O.3          1 ACP401   0.0000
    14 C5'         -8.9620   -48.7890    99.3410 C.3          1 ACP401   0.0000
    15 C4'         -8.2940   -48.4850   100.6700 C.3          1 ACP401   0.0000
    16 O4'         -8.9650   -49.1610   101.7130 O.3          1 ACP401   0.0000
    17 C3'         -6.8790   -48.9790   100.6910 C.3          1 ACP401   0.0000
    18 O3'         -6.0280   -47.8530   100.7570 O.3          1 ACP401   0.0000
    19 C2'         -6.7250   -49.7090   101.9830 C.3          1 ACP401   0.0000
    20 O2'         -5.9490   -48.8410   102.7770 O.3          1 ACP401   0.0000
    21 C1'         -8.0590   -49.7000   102.6390 C.3          1 ACP401   0.0000
    22 N9          -8.5540   -51.0280   102.9790 N.pl3        1 ACP401   0.0000
    23 C8          -9.3620   -51.7810   102.2420 C.2          1 ACP401   0.0000
    24 N7          -9.6570   -52.9290   102.8790 N.2          1 ACP401   0.0000
    25 C5          -9.0220   -52.9170   104.0550 C.ar         1 ACP401   0.0000
    26 C6          -8.8960   -53.8080   105.2080 C.ar         1 ACP401   0.0000
    27 N6          -9.5090   -55.0020   105.2720 N.pl3        1 ACP401   0.0000
    28 N1          -8.1450   -53.4000   106.2160 N.ar         1 ACP401   0.0000
    29 C2          -7.5090   -52.2400   106.2000 C.ar         1 ACP401   0.0000
    30 N3          -7.5690   -51.3880   105.1910 N.ar         1 ACP401   0.0000
    31 C4          -8.3030   -51.6610   104.1100 C.ar         1 ACP401   0.0000
    32 H3B1        -9.1767   -48.1001    94.8676 H            1 ACP401   0.0000
    33 H3B2        -8.3775   -48.8260    96.0928 H            1 ACP401   0.0000
    34 H5'1        -9.5571   -48.0251    99.0915 H            1 ACP401   0.0000
    35 H5'2        -8.2583   -48.9060    98.6402 H            1 ACP401   0.0000
    36 H4'         -8.3109   -47.4996   100.8396 H            1 ACP401   0.0000
    37 H3'         -6.6724   -49.5604    99.9041 H            1 ACP401   0.0000
    38 H7          -5.8009   -47.5520    99.8308 H            1 ACP401   0.0000
    39 H2'         -6.3317   -50.6231   101.8840 H            1 ACP401   0.0000
    40 H9          -5.3463   -48.3011   102.1894 H            1 ACP401   0.0000
    41 H1'         -8.0305   -49.1280   103.4587 H            1 ACP401   0.0000
    42 H11         -9.7046   -51.5293   101.3369 H            1 ACP401   0.0000
    43 H12         -9.3953   -55.5797   106.0803 H            1 ACP401   0.0000
    44 H13        -10.0789   -55.3129   104.5114 H            1 ACP401   0.0000
    45 H14         -6.9529   -51.9945   106.9940 H            1 ACP401   0.0000
@<TRIPOS>BOND
     1    1    2      ar
     2    1    3      ar
     3    1    4      ar
     4    1    8       1
     5    5    6      ar
     6    5    7      ar
     7    5    8       1
     8    5   12       1
     9    9   10      ar
    10    9   11      ar
    11    9   12       1
    12    9   13       1
    13   13   14       1
    14   14   15       1
    15   15   16       1
    16   15   17       1
    17   16   21       1
    18   17   18       1
    19   17   19       1
    20   19   20       1
    21   19   21       1
    22   21   22       1
    23   22   23       1
    24   22   31       1
    25   23   24       2
    26   24   25       1
    27   25   26      ar
    28   25   31      ar
    29   26   27       1
    30   26   28      ar
    31   28   29      ar
    32   29   30      ar
    33   30   31      ar
    34   29   45       1
    35   27   44       1
    36   27   43       1
    37    8   32       1
    38    8   33       1
    39   23   42       1
    40   14   34       1
    41   14   35       1
    42   15   36       1
    43   17   37       1
    44   18   38       1
    45   19   39       1
    46   20   40       1
    47   21   41       1
@<TRIPOS>SUBSTRUCTURE
     1 ACP401      1 GROUP             4 F     ACP     0 **** ACP F 401
