@<TRIPOS>MOLECULE
3pxk_PXK_1_ligand
   29    30     1     0     0
SMALL
NO_CHARGES


@<TRIPOS>ATOM
     1 S1          -1.4330    -3.9410    20.7150 S.3          1 PXK701   0.0000
     2 C2          -0.0820    -4.2580    19.6350 C.2          1 PXK701   0.0000
     3 C3          -0.2430    -3.4680    18.5070 C.2          1 PXK701   0.0000
     4 N4          -1.3320    -2.6980    18.5620 N.2          1 PXK701   0.0000
     5 C5          -2.0850    -2.8180    19.6010 C.2          1 PXK701   0.0000
     6 N6           0.8210    -3.7540    17.6750 N.pl3        1 PXK701   0.0000
     7 C7           1.5690    -4.7360    18.2720 C.2          1 PXK701   0.0000
     8 C8           1.0580    -5.0400    19.4790 C.2          1 PXK701   0.0000
     9 C9           1.5970    -6.0940    20.4380 C.3          1 PXK701   0.0000
    10 C10          0.5370    -6.6080    21.3360 C.1          1 PXK701   0.0000
    11 C11         -0.3320    -6.9680    22.0390 C.1          1 PXK701   0.0000
    12 C12         -1.4460    -7.3810    22.9130 C.3          1 PXK701   0.0000
    13 C13         -0.9120    -7.8660    24.2600 C.3          1 PXK701   0.0000
    14 C14         -2.3700    -6.1860    23.1490 C.3          1 PXK701   0.0000
    15 C15         -2.2550    -8.5020    22.2580 C.3          1 PXK701   0.0000
    16 H1          -2.9405    -2.3188    19.7384 H            1 PXK701   0.0000
    17 H2           1.0122    -3.3218    16.7937 H            1 PXK701   0.0000
    18 H3           2.3775    -5.1644    17.8686 H            1 PXK701   0.0000
    19 H4           2.3229    -5.6871    20.9926 H            1 PXK701   0.0000
    20 H5           1.9699    -6.8551    19.9073 H            1 PXK701   0.0000
    21 H6          -1.6769    -8.1425    24.8418 H            1 PXK701   0.0000
    22 H7          -0.3037    -8.6465    24.1159 H            1 PXK701   0.0000
    23 H8          -0.4060    -7.1264    24.7038 H            1 PXK701   0.0000
    24 H9          -3.1270    -6.4618    23.7414 H            1 PXK701   0.0000
    25 H10         -1.8558    -5.4484    23.5868 H            1 PXK701   0.0000
    26 H11         -2.7315    -5.8661    22.2732 H            1 PXK701   0.0000
    27 H12         -3.0049    -8.7693    22.8632 H            1 PXK701   0.0000
    28 H13         -2.6276    -8.1795    21.3879 H            1 PXK701   0.0000
    29 H14         -1.6613    -9.2900    22.0948 H            1 PXK701   0.0000
@<TRIPOS>BOND
     1    1    2       1
     2    1    5       1
     3    2    3       2
     4    2    8       1
     5    3    4       1
     6    3    6       1
     7    4    5       2
     8    6    7       1
     9    7    8       2
    10    8    9       1
    11    9   10       1
    12   10   11       3
    13   11   12       1
    14   12   13       1
    15   12   14       1
    16   12   15       1
    17    5   16       1
    18    6   17       1
    19    7   18       1
    20    9   19       1
    21    9   20       1
    22   13   21       1
    23   13   22       1
    24   13   23       1
    25   14   24       1
    26   14   25       1
    27   14   26       1
    28   15   27       1
    29   15   28       1
    30   15   29       1
@<TRIPOS>SUBSTRUCTURE
     1 PXK701      1 GROUP             4 A     PXK     0 **** PXK A 701
