@<TRIPOS>MOLECULE
4ywj_NAD_1_ligand
   70    74     1     0     0
SMALL
NO_CHARGES


@<TRIPOS>ATOM
     1 PA          48.1950    37.0400     3.2280 P.3          1 NAD300   0.0000
     2 O1A         48.9010    35.8610     2.6280 O.co2        1 NAD300   0.0000
     3 O2A         48.1370    38.4680     2.7930 O.co2        1 NAD300  -1.0000
     4 O5B         49.0830    37.2120     4.7130 O.3          1 NAD300   0.0000
     5 C5B         49.5330    35.9880     5.1390 C.3          1 NAD300   0.0000
     6 C4B         50.8420    36.2550     5.8910 C.3          1 NAD300   0.0000
     7 O4B         51.3240    35.0730     6.5510 O.3          1 NAD300   0.0000
     8 C3B         51.9180    36.6570     4.8060 C.3          1 NAD300   0.0000
     9 O3B         52.4310    37.8750     5.2050 O.3          1 NAD300   0.0000
    10 C2B         52.9620    35.5530     4.9660 C.3          1 NAD300   0.0000
    11 O2B         54.2630    36.0340     4.8180 O.3          1 NAD300   0.0000
    12 C1B         52.7440    35.2350     6.4730 C.3          1 NAD300   0.0000
    13 N9A         53.4430    34.0040     6.8300 N.pl3        1 NAD300   0.0000
    14 C8A         53.6870    32.8460     6.0660 C.2          1 NAD300   0.0000
    15 N7A         54.4050    31.9330     6.7260 N.2          1 NAD300   0.0000
    16 C5A         54.6610    32.5180     7.9700 C.ar         1 NAD300   0.0000
    17 C6A         55.3700    32.0660     9.1130 C.ar         1 NAD300   0.0000
    18 N6A         55.9490    30.8290     9.1040 N.pl3        1 NAD300   0.0000
    19 N1A         55.4670    32.8600    10.2270 N.ar         1 NAD300   0.0000
    20 C2A         54.8500    34.0870    10.1640 C.ar         1 NAD300   0.0000
    21 N3A         54.1500    34.6500     9.1530 N.ar         1 NAD300   0.0000
    22 C4A         54.0720    33.8220     8.0560 C.ar         1 NAD300   0.0000
    23 O3          46.7980    36.2890     3.5560 O.3          1 NAD300   0.0000
    24 PN          45.6650    37.1550     4.3200 P.3          1 NAD300   0.0000
    25 O1N         46.0620    38.0470     5.4630 O.co2        1 NAD300   0.0000
    26 O2N         44.7300    37.3960     3.1930 O.co2        1 NAD300  -1.0000
    27 O5D         44.7260    35.9330     5.1220 O.3          1 NAD300   0.0000
    28 C5D         45.4500    35.2340     6.0660 C.3          1 NAD300   0.0000
    29 C4D         44.5250    34.1600     6.7060 C.3          1 NAD300   0.0000
    30 O4D         43.3730    34.8290     7.3530 O.3          1 NAD300   0.0000
    31 C3D         43.9110    33.2120     5.6380 C.3          1 NAD300   0.0000
    32 O3D         43.7320    31.9800     6.2700 O.3          1 NAD300   0.0000
    33 C2D         42.5220    33.8290     5.4160 C.3          1 NAD300   0.0000
    34 O2D         41.5880    32.9100     5.0220 O.3          1 NAD300   0.0000
    35 C1D         42.2140    34.1530     6.9190 C.3          1 NAD300   0.0000
    36 N1N         41.1210    35.2400     7.0830 N.ar         1 NAD300   1.0000
    37 C2N         40.2410    35.0580     8.1120 C.ar         1 NAD300   0.0000
    38 C3N         39.2390    36.0220     8.3390 C.ar         1 NAD300   0.0000
    39 C7N         38.2850    35.7650     9.4630 C.2          1 NAD300   0.0000
    40 O7N         37.3760    36.5440     9.7160 O.2          1 NAD300   0.0000
    41 N7N         38.4780    34.6550    10.2290 N.am         1 NAD300   0.0000
    42 C4N         39.1960    37.1680     7.5440 C.ar         1 NAD300   0.0000
    43 C5N         40.1280    37.3460     6.5140 C.ar         1 NAD300   0.0000
    44 C6N         41.1180    36.3740     6.2950 C.ar         1 NAD300   0.0000
    45 H5B1        49.6984    35.3874     4.3567 H            1 NAD300   0.0000
    46 H5B2        48.8627    35.5646     5.7484 H            1 NAD300   0.0000
    47 H4B         50.7193    36.9964     6.5507 H            1 NAD300   0.0000
    48 H3B         51.5350    36.6886     3.8828 H            1 NAD300   0.0000
    49 H5          52.8491    37.7807     6.1085 H            1 NAD300   0.0000
    50 H2B         52.7773    34.7649     4.3789 H            1 NAD300   0.0000
    51 H7          54.6152    36.3222     5.7085 H            1 NAD300   0.0000
    52 H1B         53.0479    35.9964     7.0456 H            1 NAD300   0.0000
    53 H8A         53.3581    32.7208     5.1300 H            1 NAD300   0.0000
    54 H6A1        56.4498    30.5055     9.9068 H            1 NAD300   0.0000
    55 H6A2        55.8721    30.2468     8.2946 H            1 NAD300   0.0000
    56 H2A         54.9309    34.6467    10.9888 H            1 NAD300   0.0000
    57 H5D1        45.7765    35.8617     6.7727 H            1 NAD300   0.0000
    58 H5D2        46.2314    34.7884     5.6291 H            1 NAD300   0.0000
    59 H4D         45.0353    33.6284     7.3820 H            1 NAD300   0.0000
    60 H3D         44.4559    33.1523     4.8016 H            1 NAD300   0.0000
    61 H17         44.4277    31.8649     6.9791 H            1 NAD300   0.0000
    62 H2D         42.5420    34.6426     4.8349 H            1 NAD300   0.0000
    63 H19         41.8759    32.4902     4.1613 H            1 NAD300   0.0000
    64 H1D         42.0235    33.3323     7.4577 H            1 NAD300   0.0000
    65 H2N         40.3073    34.2499     8.6973 H            1 NAD300   0.0000
    66 H7N1        37.8570    34.4566    10.9873 H            1 NAD300   0.0000
    67 H7N2        39.2407    34.0386    10.0330 H            1 NAD300   0.0000
    68 H4N         38.4976    37.8642     7.7102 H            1 NAD300   0.0000
    69 H5N         40.0888    38.1617     5.9369 H            1 NAD300   0.0000
    70 H6N         41.8076    36.5008     5.5820 H            1 NAD300   0.0000
@<TRIPOS>BOND
     1    1    2      ar
     2    1    3      ar
     3    1    4       1
     4    1   23       1
     5    4    5       1
     6    5    6       1
     7    6    7       1
     8    6    8       1
     9    7   12       1
    10    8    9       1
    11    8   10       1
    12   10   11       1
    13   10   12       1
    14   12   13       1
    15   13   14       1
    16   13   22       1
    17   14   15       2
    18   15   16       1
    19   16   17      ar
    20   16   22      ar
    21   17   18       1
    22   17   19      ar
    23   19   20      ar
    24   20   21      ar
    25   21   22      ar
    26   23   24       1
    27   24   25      ar
    28   24   26      ar
    29   24   27       1
    30   27   28       1
    31   28   29       1
    32   29   30       1
    33   29   31       1
    34   30   35       1
    35   31   32       1
    36   31   33       1
    37   33   34       1
    38   33   35       1
    39   35   36       1
    40   36   37      ar
    41   36   44      ar
    42   37   38      ar
    43   38   39       1
    44   38   42      ar
    45   39   40       2
    46   39   41      am
    47   42   43      ar
    48   43   44      ar
    49   44   70       1
    50    5   45       1
    51    5   46       1
    52    6   47       1
    53    8   48       1
    54    9   49       1
    55   10   50       1
    56   11   51       1
    57   12   52       1
    58   14   53       1
    59   18   54       1
    60   18   55       1
    61   20   56       1
    62   43   69       1
    63   28   57       1
    64   28   58       1
    65   29   59       1
    66   31   60       1
    67   32   61       1
    68   33   62       1
    69   34   63       1
    70   35   64       1
    71   37   65       1
    72   41   66       1
    73   41   67       1
    74   42   68       1
@<TRIPOS>SUBSTRUCTURE
     1 NAD300      1 GROUP             4 A     NAD     0 **** NAD A 300
