@<TRIPOS>MOLECULE
4imo_PWZ_2_ligand
   62    63     1     0     0
SMALL
NO_CHARGES


@<TRIPOS>ATOM
     1 O1          16.3390    35.2070    17.2840 O.co2        1 PWZ202   0.0000
     2 C1          15.5700    36.1360    17.6220 C.2          1 PWZ202   0.0000
     3 O2          14.3570    35.9960    17.9390 O.co2        1 PWZ202  -1.0000
     4 C2          16.1030    37.5590    17.4730 C.3          1 PWZ202   0.0000
     5 C3          17.3200    37.8650    18.3710 C.3          1 PWZ202   0.0000
     6 C4          18.5100    37.0260    17.8720 C.3          1 PWZ202   0.0000
     7 C5          19.8110    37.7320    18.2930 C.3          1 PWZ202   0.0000
     8 C6          21.1790    37.3350    17.6830 C.3          1 PWZ202   0.0000
     9 C7          22.4200    38.0830    18.1200 C.3          1 PWZ202   0.0000
    10 C8          23.6430    37.1420    18.0480 C.3          1 PWZ202   0.0000
    11 C9          24.9360    37.9080    18.3710 C.3          1 PWZ202   0.0000
    12 C10         24.9980    37.8670    19.8770 C.3          1 PWZ202   0.0000
    13 O5          26.1040    37.1010    18.0290 O.3          1 PWZ202   0.0000
    14 C21         26.2340    36.1330    19.1340 C.3          1 PWZ202   0.0000
    15 C11         24.9710    36.3930    19.9530 C.3          1 PWZ202   0.0000
    16 C12         23.6620    36.0800    19.1710 C.3          1 PWZ202   0.0000
    17 C13         23.6640    34.6380    18.6140 C.3          1 PWZ202   0.0000
    18 C14         22.5150    33.6860    18.9670 C.3          1 PWZ202   0.0000
    19 C15         22.5430    32.2460    18.4790 C.3          1 PWZ202   0.0000
    20 O3          22.1270    31.4420    19.5720 O.3          1 PWZ202   0.0000
    21 C16         21.5950    32.0470    17.3170 C.3          1 PWZ202   0.0000
    22 C17         22.3140    31.0870    16.3650 C.3          1 PWZ202   0.0000
    23 C18         21.2470    30.1440    15.7970 C.3          1 PWZ202   0.0000
    24 C19         21.7700    29.6140    14.4630 C.3          1 PWZ202   0.0000
    25 C20         22.7940    28.5120    14.7850 C.3          1 PWZ202   0.0000
    26 H1          15.3694    38.1967    17.7080 H            1 PWZ202   0.0000
    27 H2          16.3719    37.6968    16.5197 H            1 PWZ202   0.0000
    28 H3          17.1102    37.6245    19.3187 H            1 PWZ202   0.0000
    29 H4          17.5451    38.8378    18.3159 H            1 PWZ202   0.0000
    30 H5          18.4747    36.9486    16.8756 H            1 PWZ202   0.0000
    31 H6          18.4740    36.1132    18.2787 H            1 PWZ202   0.0000
    32 H7          19.8946    37.6044    19.2813 H            1 PWZ202   0.0000
    33 H8          19.6832    38.7032    18.0920 H            1 PWZ202   0.0000
    34 H9          21.1022    37.4476    16.6923 H            1 PWZ202   0.0000
    35 H10         21.3272    36.3698    17.8983 H            1 PWZ202   0.0000
    36 H11         22.3017    38.4041    19.0596 H            1 PWZ202   0.0000
    37 H12         22.5666    38.8664    17.5160 H            1 PWZ202   0.0000
    38 H13         23.7036    36.7081    17.1491 H            1 PWZ202   0.0000
    39 H14         24.9611    38.8331    17.9922 H            1 PWZ202   0.0000
    40 H15         24.2076    38.2966    20.3138 H            1 PWZ202   0.0000
    41 H16         25.8389    38.2632    20.2457 H            1 PWZ202   0.0000
    42 H17         27.0572    36.3093    19.6737 H            1 PWZ202   0.0000
    43 H18         26.2551    35.1939    18.7910 H            1 PWZ202   0.0000
    44 H19         24.9966    36.0252    20.8826 H            1 PWZ202   0.0000
    45 H20         22.8720    36.2089    19.7705 H            1 PWZ202   0.0000
    46 H21         24.5074    34.2053    18.9324 H            1 PWZ202   0.0000
    47 H22         23.6832    34.7122    17.6169 H            1 PWZ202   0.0000
    48 H23         21.6782    34.0971    18.6054 H            1 PWZ202   0.0000
    49 H24         22.4651    33.6515    19.9652 H            1 PWZ202   0.0000
    50 H25         23.4724    31.9965    18.2070 H            1 PWZ202   0.0000
    51 H26         21.2035    31.7077    19.8487 H            1 PWZ202   0.0000
    52 H27         21.4113    32.9184    16.8622 H            1 PWZ202   0.0000
    53 H28         20.7341    31.6476    17.6323 H            1 PWZ202   0.0000
    54 H29         23.0064    30.5638    16.8619 H            1 PWZ202   0.0000
    55 H30         22.7503    31.5987    15.6249 H            1 PWZ202   0.0000
    56 H31         20.3913    30.6417    15.6553 H            1 PWZ202   0.0000
    57 H32         21.0904    29.3848    16.4288 H            1 PWZ202   0.0000
    58 H33         22.2092    30.3511    13.9494 H            1 PWZ202   0.0000
    59 H34         21.0167    29.2358    13.9250 H            1 PWZ202   0.0000
    60 H35         23.1608    28.1385    13.9330 H            1 PWZ202   0.0000
    61 H36         23.5397    28.8982    15.3279 H            1 PWZ202   0.0000
    62 H37         22.3472    27.7829    15.3035 H            1 PWZ202   0.0000
@<TRIPOS>BOND
     1    1    2      ar
     2    2    3      ar
     3    2    4       1
     4    4    5       1
     5    5    6       1
     6    6    7       1
     7    7    8       1
     8    8    9       1
     9    9   10       1
    10   10   11       1
    11   10   16       1
    12   11   12       1
    13   11   13       1
    14   12   15       1
    15   13   14       1
    16   14   15       1
    17   15   16       1
    18   16   17       1
    19   17   18       1
    20   18   19       1
    21   19   20       1
    22   19   21       1
    23   21   22       1
    24   22   23       1
    25   23   24       1
    26   24   25       1
    27   25   62       1
    28    4   26       1
    29    4   27       1
    30    5   28       1
    31    5   29       1
    32    6   30       1
    33    6   31       1
    34    7   32       1
    35    7   33       1
    36    8   34       1
    37    8   35       1
    38    9   36       1
    39    9   37       1
    40   10   38       1
    41   11   39       1
    42   12   40       1
    43   12   41       1
    44   14   42       1
    45   14   43       1
    46   15   44       1
    47   16   45       1
    48   17   46       1
    49   17   47       1
    50   18   48       1
    51   18   49       1
    52   19   50       1
    53   20   51       1
    54   21   52       1
    55   21   53       1
    56   22   54       1
    57   22   55       1
    58   23   56       1
    59   23   57       1
    60   24   58       1
    61   24   59       1
    62   25   60       1
    63   25   61       1
@<TRIPOS>SUBSTRUCTURE
     1 PWZ202      1 GROUP             4 A     PWZ     0 **** PWZ A 202
