@<TRIPOS>MOLECULE
1x1j_46D_1_ligand
   48    50     1     0     0
SMALL
NO_CHARGES


@<TRIPOS>ATOM
     1 O6A         20.7370    56.2480    80.0810 O.co2        1 46D2001   0.0000
     2 C6          19.6590    56.6160    79.5660 C.2          1 46D2001   0.0000
     3 O6B         18.7780    55.8310    79.1540 O.co2        1 46D2001  -1.0000
     4 C5          19.4170    58.1200    79.4240 C.3          1 46D2001   0.0000
     5 O5          20.0490    58.5660    78.2110 O.3          1 46D2001   0.0000
     6 C1          19.9480    59.9900    78.0430 C.3          1 46D2001   0.0000
     7 C2          18.4720    60.3750    77.9130 C.3          1 46D2001   0.0000
     8 O2          18.3640    61.7960    77.7880 O.3          1 46D2001   0.0000
     9 C3          17.6990    59.9080    79.1490 C.3          1 46D2001   0.0000
    10 O3          16.3060    60.1460    78.9330 O.3          1 46D2001   0.0000
    11 C4          17.9220    58.4150    79.4090 C.3          1 46D2001   0.0000
    12 OP1         17.3580    58.0400    80.6770 O.3          1 46D2001   0.0000
    13 CP1         16.1010    57.3590    80.5310 C.3          1 46D2001   0.0000
    14 OP5         15.0620    58.2920    80.1870 O.3          1 46D2001   0.0000
    15 CP5         13.8000    57.6310    79.9940 C.3          1 46D2001   0.0000
    16 CP6         12.7180    58.6170    79.5860 C.3          1 46D2001   0.0000
    17 OP6         11.4700    57.9220    79.4230 O.3          1 46D2001   0.0000
    18 CP7         11.0400    57.2010    80.5860 C.3          1 46D2001   0.0000
    19 CP9         10.5820    58.1520    81.6960 C.2          1 46D2001   0.0000
    20 OP7         10.6310    57.7220    82.8680 O.co2        1 46D2001   0.0000
    21 OP8         10.1910    59.2880    81.3490 O.co2        1 46D2001  -1.0000
    22 CP8          9.8470    56.3350    80.1770 C.3          1 46D2001   0.0000
    23 OP4         12.0730    56.3230    81.0550 O.3          1 46D2001   0.0000
    24 CP4         13.3260    56.9880    81.2870 C.3          1 46D2001   0.0000
    25 CP3         14.3850    55.9770    81.7310 C.3          1 46D2001   0.0000
    26 OP3         14.0150    55.4420    83.0050 O.3          1 46D2001   0.0000
    27 CP2         15.7550    56.6510    81.8450 C.3          1 46D2001   0.0000
    28 OP2         15.7130    57.6140    82.9010 O.3          1 46D2001   0.0000
    29 H1          19.8341    58.5917    80.2009 H            1 46D2001   0.0000
    30 H2          20.4400    60.2656    77.2172 H            1 46D2001   0.0000
    31 H3          20.3455    60.4500    78.8370 H            1 46D2001   0.0000
    32 H4          18.0872    59.9409    77.0984 H            1 46D2001   0.0000
    33 H5          17.9238    62.0217    76.9189 H            1 46D2001   0.0000
    34 H6          18.0034    60.4306    79.9454 H            1 46D2001   0.0000
    35 H7          15.7702    59.4635    79.4302 H            1 46D2001   0.0000
    36 H8          17.4866    57.8834    78.6824 H            1 46D2001   0.0000
    37 HP1         16.1815    56.6771    79.8040 H            1 46D2001   0.0000
    38 HP5         13.8954    56.9293    79.2879 H            1 46D2001   0.0000
    39 HP61        12.9723    59.0518    78.7221 H            1 46D2001   0.0000
    40 HP62        12.6199    59.3157    80.2946 H            1 46D2001   0.0000
    41 HP81         9.5231    55.8180    80.9694 H            1 46D2001   0.0000
    42 HP82         9.1109    56.9206    79.8375 H            1 46D2001   0.0000
    43 HP83        10.1272    55.7003    79.4568 H            1 46D2001   0.0000
    44 HP4         13.2115    57.6889    81.9910 H            1 46D2001   0.0000
    45 HP3         14.4355    55.2352    81.0623 H            1 46D2001   0.0000
    46 H18         13.1268    54.9886    82.9309 H            1 46D2001   0.0000
    47 HP2         16.4511    55.9622    82.0475 H            1 46D2001   0.0000
    48 H20         15.9750    57.1769    83.7614 H            1 46D2001   0.0000
@<TRIPOS>BOND
     1    1    2      ar
     2    2    3      ar
     3    2    4       1
     4    4    5       1
     5    4   11       1
     6    5    6       1
     7    6    7       1
     8    7    8       1
     9    7    9       1
    10    9   10       1
    11    9   11       1
    12   11   12       1
    13   12   13       1
    14   13   14       1
    15   13   27       1
    16   14   15       1
    17   15   16       1
    18   15   24       1
    19   16   17       1
    20   17   18       1
    21   18   19       1
    22   18   22       1
    23   18   23       1
    24   19   20      ar
    25   19   21      ar
    26   23   24       1
    27   24   25       1
    28   25   26       1
    29   25   27       1
    30   27   28       1
    31   28   48       1
    32    4   29       1
    33    6   30       1
    34    6   31       1
    35    7   32       1
    36    8   33       1
    37    9   34       1
    38   10   35       1
    39   11   36       1
    40   13   37       1
    41   15   38       1
    42   16   39       1
    43   16   40       1
    44   27   47       1
    45   22   41       1
    46   22   42       1
    47   22   43       1
    48   24   44       1
    49   25   45       1
    50   26   46       1
@<TRIPOS>SUBSTRUCTURE
     1 46D2001     1 GROUP             4 A     46D     0 **** 46D A2001
