@<TRIPOS>MOLECULE
3t7t_SAH_3_ligand
   46    48     1     0     0
SMALL
NO_CHARGES


@<TRIPOS>ATOM
     1 N          -12.6280   -19.9640    44.9050 N.4          1 SAH300   1.0000
     2 CA         -13.2590   -21.2550    44.5950 C.3          1 SAH300   0.0000
     3 CB         -12.2540   -22.1700    43.8900 C.3          1 SAH300   0.0000
     4 CG         -11.0220   -22.4770    44.7450 C.3          1 SAH300   0.0000
     5 SD          -9.9050   -23.6970    43.9600 S.3          1 SAH300   0.0000
     6 C          -13.7560   -21.9040    45.8890 C.2          1 SAH300   0.0000
     7 O          -13.3820   -21.3850    46.9620 O.co2        1 SAH300   0.0000
     8 OXT        -14.5060   -22.8990    45.7780 O.co2        1 SAH300  -1.0000
     9 C5'         -8.6900   -22.5850    43.1600 C.3          1 SAH300   0.0000
    10 C4'         -9.2520   -21.8210    41.9590 C.3          1 SAH300   0.0000
    11 O4'         -8.2510   -20.9110    41.4630 O.3          1 SAH300   0.0000
    12 C3'         -9.5600   -22.7830    40.8080 C.3          1 SAH300   0.0000
    13 O3'        -10.7100   -22.3140    40.0980 O.3          1 SAH300   0.0000
    14 C2'         -8.3000   -22.6190    39.9580 C.3          1 SAH300   0.0000
    15 O2'         -8.5650   -23.0230    38.6130 O.3          1 SAH300   0.0000
    16 C1'         -8.2070   -21.0960    40.0400 C.3          1 SAH300   0.0000
    17 N9          -6.9510   -20.5460    39.4800 N.pl3        1 SAH300   0.0000
    18 C8          -5.7640   -21.1490    39.4640 C.2          1 SAH300   0.0000
    19 N7          -4.8520   -20.3340    38.9400 N.2          1 SAH300   0.0000
    20 C5          -5.4630   -19.2070    38.5910 C.ar         1 SAH300   0.0000
    21 C6          -5.0380   -18.0090    38.0320 C.ar         1 SAH300   0.0000
    22 N6          -3.7660   -17.8340    37.6810 N.pl3        1 SAH300   0.0000
    23 N1          -5.9330   -17.0290    37.8420 N.ar         1 SAH300   0.0000
    24 C2          -7.2010   -17.1940    38.1750 C.ar         1 SAH300   0.0000
    25 N3          -7.6370   -18.3180    38.7180 N.ar         1 SAH300   0.0000
    26 C4          -6.8010   -19.3400    38.9380 C.ar         1 SAH300   0.0000
    27 H1         -13.2894   -19.3716    45.3650 H            1 SAH300   0.0000
    28 H2         -11.8410   -20.1129    45.5037 H            1 SAH300   0.0000
    29 HA         -14.0387   -21.0991    43.9885 H            1 SAH300   0.0000
    30 HB1        -11.9536   -21.7237    43.0470 H            1 SAH300   0.0000
    31 HB2        -12.7097   -23.0317    43.6668 H            1 SAH300   0.0000
    32 HG1        -11.3260   -22.8413    45.6253 H            1 SAH300   0.0000
    33 HG2        -10.5152   -21.6277    44.8928 H            1 SAH300   0.0000
    34 H5'1        -7.9151   -23.1355    42.8494 H            1 SAH300   0.0000
    35 H5'2        -8.3762   -21.9204    43.8381 H            1 SAH300   0.0000
    36 H4'        -10.0764   -21.3198    42.2219 H            1 SAH300   0.0000
    37 H3'         -9.6757   -23.7235    41.1275 H            1 SAH300   0.0000
    38 H12        -10.7539   -21.3167    40.1563 H            1 SAH300   0.0000
    39 H2'         -7.5037   -23.0783    40.3516 H            1 SAH300   0.0000
    40 H14         -9.2957   -22.4562    38.2325 H            1 SAH300   0.0000
    41 H1'         -9.0013   -20.6713    39.6055 H            1 SAH300   0.0000
    42 H16         -5.5848   -22.0751    39.7959 H            1 SAH300   0.0000
    43 H17         -3.4730   -16.9663    37.2794 H            1 SAH300   0.0000
    44 H18         -3.1034   -18.5702    37.8189 H            1 SAH300   0.0000
    45 H19         -7.8480   -16.4491    38.0120 H            1 SAH300   0.0000
    46 H20        -12.3244   -19.5293    44.0572 H            1 SAH300   0.0000
@<TRIPOS>BOND
     1    1    2       1
     2    2    3       1
     3    2    6       1
     4    3    4       1
     5    4    5       1
     6    5    9       1
     7    6    7      ar
     8    6    8      ar
     9    9   10       1
    10   10   11       1
    11   10   12       1
    12   11   16       1
    13   12   13       1
    14   12   14       1
    15   14   15       1
    16   14   16       1
    17   16   17       1
    18   17   18       1
    19   17   26       1
    20   18   19       2
    21   19   20       1
    22   20   21      ar
    23   20   26      ar
    24   21   22       1
    25   21   23      ar
    26   23   24      ar
    27   24   25      ar
    28   25   26      ar
    29    1   27       1
    30    1   28       1
    31    2   29       1
    32    3   30       1
    33    3   31       1
    34    4   32       1
    35    4   33       1
    36    1   46       1
    37    9   34       1
    38    9   35       1
    39   10   36       1
    40   12   37       1
    41   13   38       1
    42   14   39       1
    43   15   40       1
    44   16   41       1
    45   18   42       1
    46   22   43       1
    47   22   44       1
    48   24   45       1
@<TRIPOS>SUBSTRUCTURE
     1 SAH300      1 GROUP             4 C     SAH     0 **** SAH C 300
