@<TRIPOS>MOLECULE
1zq9_SAM_2_ligand
   50    52     1     0     0
SMALL
NO_CHARGES


@<TRIPOS>ATOM
     1 N          -25.6540   -33.9130    18.5830 N.4          1 SAM4001   1.0000
     2 CA         -25.6720   -33.2400    19.9080 C.3          1 SAM4001   0.0000
     3 C          -25.7210   -31.7280    19.7570 C.2          1 SAM4001   0.0000
     4 O          -25.9210   -31.0410    20.7570 O.co2        1 SAM4001   0.0000
     5 OXT        -25.5660   -31.1810    18.6490 O.co2        1 SAM4001  -1.0000
     6 CB         -24.4720   -33.6690    20.7490 C.3          1 SAM4001   0.0000
     7 CG         -24.8840   -34.2280    22.1020 C.3          1 SAM4001   0.0000
     8 SD         -23.5360   -34.8980    23.1110 S.3          1 SAM4001   1.0000
     9 CE         -22.5300   -33.4560    23.3960 C.3          1 SAM4001   0.0000
    10 C5'        -22.3720   -35.8090    22.0850 C.3          1 SAM4001   0.0000
    11 C4'        -21.2080   -36.2870    22.9720 C.3          1 SAM4001   0.0000
    12 O4'        -20.5040   -35.2790    23.7220 O.3          1 SAM4001   0.0000
    13 C3'        -21.6670   -37.3130    23.9930 C.3          1 SAM4001   0.0000
    14 O3'        -20.7770   -38.3890    23.7990 O.3          1 SAM4001   0.0000
    15 C2'        -21.4750   -36.6100    25.3350 C.3          1 SAM4001   0.0000
    16 O2'        -21.2590   -37.4810    26.4430 O.3          1 SAM4001   0.0000
    17 C1'        -20.2690   -35.7370    25.0410 C.3          1 SAM4001   0.0000
    18 N9         -20.0590   -34.5830    25.9390 N.pl3        1 SAM4001   0.0000
    19 C8         -21.0060   -33.7590    26.4970 C.2          1 SAM4001   0.0000
    20 N7         -20.3840   -32.8060    27.2270 N.2          1 SAM4001   0.0000
    21 C5         -19.0340   -33.0100    27.1430 C.ar         1 SAM4001   0.0000
    22 C6         -17.9270   -32.3490    27.6680 C.ar         1 SAM4001   0.0000
    23 N6         -18.0700   -31.2690    28.4670 N.pl3        1 SAM4001   0.0000
    24 N1         -16.6550   -32.8450    27.3820 N.ar         1 SAM4001   0.0000
    25 C2         -16.4610   -33.9460    26.5690 C.ar         1 SAM4001   0.0000
    26 N3         -17.5560   -34.5830    26.0550 N.ar         1 SAM4001   0.0000
    27 C4         -18.8180   -34.1270    26.3250 C.ar         1 SAM4001   0.0000
    28 H1         -25.6218   -34.9040    18.7129 H            1 SAM4001   0.0000
    29 H2         -26.4801   -33.6701    18.0745 H            1 SAM4001   0.0000
    30 HA         -26.5012   -33.5277    20.3872 H            1 SAM4001   0.0000
    31 HB1        -23.8819   -32.8750    20.8955 H            1 SAM4001   0.0000
    32 HB2        -23.9658   -34.3731    20.2510 H            1 SAM4001   0.0000
    33 HG1        -25.5450   -34.9616    21.9442 H            1 SAM4001   0.0000
    34 HG2        -25.3202   -33.4920    22.6198 H            1 SAM4001   0.0000
    35 HE1        -21.7388   -33.7065    23.9538 H            1 SAM4001   0.0000
    36 HE2        -22.2174   -33.0892    22.5198 H            1 SAM4001   0.0000
    37 HE3        -23.0690   -32.7627    23.8744 H            1 SAM4001   0.0000
    38 H5'1       -22.0223   -35.2136    21.3617 H            1 SAM4001   0.0000
    39 H5'2       -22.8296   -36.5980    21.6751 H            1 SAM4001   0.0000
    40 H4'        -20.5423   -36.7356    22.3757 H            1 SAM4001   0.0000
    41 H3'        -22.6182   -37.5848    23.8470 H            1 SAM4001   0.0000
    42 H15        -19.9790   -38.2723    24.3902 H            1 SAM4001   0.0000
    43 H2'        -22.2672   -36.0286    25.5205 H            1 SAM4001   0.0000
    44 H17        -20.4356   -38.0255    26.2834 H            1 SAM4001   0.0000
    45 H1'        -19.4469   -36.3063    25.0457 H            1 SAM4001   0.0000
    46 H19        -21.9952   -33.8494    26.3819 H            1 SAM4001   0.0000
    47 H20        -17.2620   -30.8081    28.8341 H            1 SAM4001   0.0000
    48 H21        -18.9838   -30.9305    28.6913 H            1 SAM4001   0.0000
    49 H22        -15.5381   -34.2701    26.3610 H            1 SAM4001   0.0000
    50 H23        -24.8480   -33.6177    18.0701 H            1 SAM4001   0.0000
@<TRIPOS>BOND
     1    1    2       1
     2    2    3       1
     3    2    6       1
     4    3    4      ar
     5    3    5      ar
     6    6    7       1
     7    7    8       1
     8    8    9       1
     9    8   10       1
    10   10   11       1
    11   11   12       1
    12   11   13       1
    13   12   17       1
    14   13   14       1
    15   13   15       1
    16   15   16       1
    17   15   17       1
    18   17   18       1
    19   18   19       1
    20   18   27       1
    21   19   20       2
    22   20   21       1
    23   21   22      ar
    24   21   27      ar
    25   22   23       1
    26   22   24      ar
    27   24   25      ar
    28   25   26      ar
    29   26   27      ar
    30    1   28       1
    31    1   29       1
    32    2   30       1
    33    1   50       1
    34    6   31       1
    35    6   32       1
    36    7   33       1
    37    7   34       1
    38    9   35       1
    39    9   36       1
    40    9   37       1
    41   10   38       1
    42   10   39       1
    43   11   40       1
    44   13   41       1
    45   14   42       1
    46   15   43       1
    47   16   44       1
    48   17   45       1
    49   19   46       1
    50   23   47       1
    51   23   48       1
    52   25   49       1
@<TRIPOS>SUBSTRUCTURE
     1 SAM4001     1 GROUP             4 B     SAM     0 **** SAM B4001
