@<TRIPOS>MOLECULE
1khz_ADV_1_ligand
   59    62     1     0     0
SMALL
NO_CHARGES


@<TRIPOS>ATOM
     1 PA          35.6870    33.4650    10.9050 P.3          1 ADV402   0.0000
     2 O5'         34.9940    33.5330     9.5680 O.3          1 ADV402   0.0000
     3 C5'         34.5310    32.3270     8.8470 C.3          1 ADV402   0.0000
     4 C4'         34.0900    32.7850     7.5380 C.3          1 ADV402   0.0000
     5 O4'         35.2530    32.9260     6.6760 O.3          1 ADV402   0.0000
     6 C3'         33.2330    31.7580     6.8690 C.3          1 ADV402   0.0000
     7 O3'         31.8300    32.0840     7.0220 O.3          1 ADV402   0.0000
     8 C2'         33.6720    31.8060     5.3190 C.3          1 ADV402   0.0000
     9 O2'         32.9140    32.9070     4.6310 O.3          1 ADV402   0.0000
    10 C1'         35.1480    32.2350     5.3610 C.3          1 ADV402   0.0000
    11 N9          36.0570    30.9790     5.3730 N.pl3        1 ADV402   0.0000
    12 C8          36.3450    30.1030     6.3860 C.2          1 ADV402   0.0000
    13 N7          37.0880    29.0820     5.9900 N.2          1 ADV402   0.0000
    14 C5          37.2440    29.2710     4.6250 C.ar         1 ADV402   0.0000
    15 C6          37.8300    28.4630     3.5680 C.ar         1 ADV402   0.0000
    16 N6          38.2580    27.2170     3.7680 N.pl3        1 ADV402   0.0000
    17 N1          37.8010    28.9690     2.2450 N.ar         1 ADV402   0.0000
    18 C2          37.0530    30.1200     1.9750 C.ar         1 ADV402   0.0000
    19 N3          36.3840    30.8620     2.8680 N.ar         1 ADV402   0.0000
    20 C4          36.5630    30.4210     4.2040 C.ar         1 ADV402   0.0000
    21 CX          36.9620    32.3360    10.8070 C.3          1 ADV402   0.0000
    22 PB          37.0210    30.7030    11.2200 P.3          1 ADV402   0.0000
    23 O1B         36.4470    29.9400    10.0900 O.co2        1 ADV402   0.0000
    24 OR5         38.5960    30.2630    11.3720 O.3          1 ADV402   0.0000
    25 CR5         39.2250    30.4640    12.8250 C.3          1 ADV402   0.0000
    26 CR4         39.7950    29.0920    13.4000 C.3          1 ADV402   0.0000
    27 OR4         38.6670    27.9910    13.4280 O.3          1 ADV402   0.0000
    28 CR3         40.8770    28.5970    12.3750 C.3          1 ADV402   0.0000
    29 OR3         42.0030    28.1040    13.0530 O.3          1 ADV402   0.0000
    30 CR2         40.1850    27.4550    11.5920 C.3          1 ADV402   0.0000
    31 OR2         41.0660    26.4770    11.2740 O.3          1 ADV402   0.0000
    32 CR1         39.0760    26.8880    12.5200 C.3          1 ADV402   0.0000
    33 OR1         39.6280    25.8250    13.3230 O.3          1 ADV402   0.0000
    34 O2A         36.1970    34.7660    11.2030 O.co2        1 ADV402   0.0000
    35 O2B         36.2410    30.4260    12.4380 O.co2        1 ADV402  -1.0000
    36 O1A         34.7640    33.0950    11.8920 O.co2        1 ADV402  -1.0000
    37 H5'1        33.7729    31.8983     9.3384 H            1 ADV402   0.0000
    38 H5'2        35.2796    31.6709     8.7513 H            1 ADV402   0.0000
    39 H4'         33.6019    33.6543     7.6154 H            1 ADV402   0.0000
    40 H3'         33.4193    30.8529     7.2512 H            1 ADV402   0.0000
    41 H5          31.6945    32.5789     7.8803 H            1 ADV402   0.0000
    42 H2'         33.5490    30.9234     4.8652 H            1 ADV402   0.0000
    43 H7          32.0253    33.0268     5.0735 H            1 ADV402   0.0000
    44 H1'         35.3755    32.8473     4.6038 H            1 ADV402   0.0000
    45 H9          36.0270    30.2225     7.3265 H            1 ADV402   0.0000
    46 H10         38.6549    26.6972     3.0115 H            1 ADV402   0.0000
    47 H11         38.1823    26.8018     4.6746 H            1 ADV402   0.0000
    48 H12         37.0137    30.4185     1.0214 H            1 ADV402   0.0000
    49 HX1         37.6909    32.7486    11.3533 H            1 ADV402   0.0000
    50 HX2         37.2210    32.3492     9.8412 H            1 ADV402   0.0000
    51 HR51        38.5172    30.8075    13.4423 H            1 ADV402   0.0000
    52 HR52        39.9699    31.1289    12.7690 H            1 ADV402   0.0000
    53 HR4         40.1933    29.2212    14.3081 H            1 ADV402   0.0000
    54 HR3         41.1377    29.3379    11.7560 H            1 ADV402   0.0000
    55 H19         42.8086    28.6357    12.7918 H            1 ADV402   0.0000
    56 HR2         39.7719    27.8206    10.7579 H            1 ADV402   0.0000
    57 H21         41.7826    26.4346    11.9702 H            1 ADV402   0.0000
    58 HR1         38.2972    26.5612    11.9845 H            1 ADV402   0.0000
    59 H23         39.4608    24.9471    12.8743 H            1 ADV402   0.0000
@<TRIPOS>BOND
     1    1    2       1
     2    1   21       1
     3    1   34      ar
     4    1   36      ar
     5    2    3       1
     6    3    4       1
     7    4    5       1
     8    4    6       1
     9    5   10       1
    10    6    7       1
    11    6    8       1
    12    8    9       1
    13    8   10       1
    14   10   11       1
    15   11   12       1
    16   11   20       1
    17   12   13       2
    18   13   14       1
    19   14   15      ar
    20   14   20      ar
    21   15   16       1
    22   15   17      ar
    23   17   18      ar
    24   18   19      ar
    25   19   20      ar
    26   21   22       1
    27   22   23      ar
    28   22   24       1
    29   22   35      ar
    30   24   25       1
    31   25   26       1
    32   26   27       1
    33   26   28       1
    34   27   32       1
    35   28   29       1
    36   28   30       1
    37   30   31       1
    38   30   32       1
    39   32   33       1
    40    3   37       1
    41    3   38       1
    42    4   39       1
    43    6   40       1
    44    7   41       1
    45    8   42       1
    46    9   43       1
    47   10   44       1
    48   12   45       1
    49   16   46       1
    50   16   47       1
    51   18   48       1
    52   21   49       1
    53   21   50       1
    54   33   59       1
    55   25   51       1
    56   25   52       1
    57   26   53       1
    58   28   54       1
    59   29   55       1
    60   30   56       1
    61   31   57       1
    62   32   58       1
@<TRIPOS>SUBSTRUCTURE
     1 ADV402      1 GROUP             4 B     ADV     0 **** ADV B 402
