@<TRIPOS>MOLECULE
3kme_INN_1_ligand
   66    65     1     0     0
SMALL
NO_CHARGES


@<TRIPOS>ATOM
     1 C0           5.8820     9.8430    24.1160 C.3          1 INN485   0.0000
     2 C            6.5930    10.9120    24.2310 C.2          1 INN485   0.0000
     3 O            7.8170    11.1410    23.8940 O.2          1 INN485   0.0000
     4 N            5.9380    11.9700    24.8410 N.am         1 INN485   0.0000
     5 O4           6.5240    13.1770    25.0360 O.3          1 INN485  -1.0000
     6 C4           5.8930     7.3460    24.8860 C.2          1 INN485   0.0000
     7 O1           4.6320     7.4150    25.1940 O.2          1 INN485   0.0000
     8 CA           6.6240     8.7670    25.1700 C.3          1 INN485   0.0000
     9 CB           6.5300     9.4510    26.7330 C.3          1 INN485   0.0000
    10 C1           7.3170     8.1480    27.5330 C.3          1 INN485   0.0000
    11 C2           8.9400     8.1570    27.4810 C.3          1 INN485   0.0000
    12 C3           6.8610     8.5450    29.0690 C.3          1 INN485   0.0000
    13 N1           6.4580     6.4530    24.4770 N.am         1 INN485   0.0000
    14 C5           5.8240     5.0760    24.1570 C.3          1 INN485   0.0000
    15 C6           6.1820     4.6820    22.5520 C.3          1 INN485   0.0000
    16 C7           5.6180     3.4220    22.2370 C.3          1 INN485   0.0000
    17 C8           5.2540     5.8920    21.7320 C.3          1 INN485   0.0000
    18 C9           7.6340     4.9650    22.1530 C.3          1 INN485   0.0000
    19 C10          6.5380     3.9340    25.0990 C.2          1 INN485   0.0000
    20 O2           7.6090     3.8300    25.1170 O.2          1 INN485   0.0000
    21 N2           5.3190     3.3540    25.6840 N.am         1 INN485   0.0000
    22 C11          5.6540     2.0750    26.5370 C.3          1 INN485   0.0000
    23 C13          5.0950     1.0190    25.7060 C.2          1 INN485   0.0000
    24 O3           3.9480     1.0130    25.6090 O.2          1 INN485   0.0000
    25 C12          5.0230     2.0210    28.0370 C.3          1 INN485   0.0000
    26 N4           5.2390    -1.3490    21.8150 N.4          1 INN485   1.0000
    27 C15          6.2760    -0.8650    22.8510 C.3          1 INN485   0.0000
    28 C14          5.5410    -1.0020    24.2450 C.3          1 INN485   0.0000
    29 N3           5.9710     0.0840    25.0790 N.am         1 INN485   0.0000
    30 H1           5.9042     9.4977    23.1778 H            1 INN485   0.0000
    31 H2           4.9343    10.0127    24.3864 H            1 INN485   0.0000
    32 H3           4.9960    11.8380    25.1495 H            1 INN485   0.0000
    33 HA           7.5877     8.6857    24.9156 H            1 INN485   0.0000
    34 HB1          5.5884     9.5841    27.0422 H            1 INN485   0.0000
    35 HB2          7.0311    10.3129    26.8100 H            1 INN485   0.0000
    36 H7           6.9434     7.2634    27.2538 H            1 INN485   0.0000
    37 H8           9.2937     7.3615    27.9730 H            1 INN485   0.0000
    38 H9           9.2432     8.1218    26.5287 H            1 INN485   0.0000
    39 H10          9.2826     8.9932    27.9092 H            1 INN485   0.0000
    40 H11          7.2364     7.8768    29.7114 H            1 INN485   0.0000
    41 H12          7.2074     9.4555    29.2947 H            1 INN485   0.0000
    42 H13          5.8630     8.5432    29.1314 H            1 INN485   0.0000
    43 H14          7.4380     6.5617    24.3103 H            1 INN485   0.0000
    44 H15          4.8356     5.0951    24.3074 H            1 INN485   0.0000
    45 H16          5.8301     3.1898    21.2878 H            1 INN485   0.0000
    46 H17          5.9995     2.7249    22.8440 H            1 INN485   0.0000
    47 H18          4.6260     3.4615    22.3568 H            1 INN485   0.0000
    48 H19          5.3669     5.7860    20.7441 H            1 INN485   0.0000
    49 H20          4.2882     5.7895    21.9700 H            1 INN485   0.0000
    50 H21          5.5710     6.7993    22.0083 H            1 INN485   0.0000
    51 H22          7.7727     4.7093    21.1963 H            1 INN485   0.0000
    52 H23          7.8278     5.9392    22.2691 H            1 INN485   0.0000
    53 H24          8.2492     4.4313    22.7332 H            1 INN485   0.0000
    54 H25          4.3988     3.7239    25.5563 H            1 INN485   0.0000
    55 H26          6.6463     1.9636    26.5910 H            1 INN485   0.0000
    56 H27          5.2988     1.1702    28.4842 H            1 INN485   0.0000
    57 H28          5.3573     2.8000    28.5675 H            1 INN485   0.0000
    58 H29          4.0253     2.0597    27.9805 H            1 INN485   0.0000
    59 H30          5.0418    -0.6102    21.1706 H            1 INN485   0.0000
    60 H31          5.6061    -2.1354    21.3183 H            1 INN485   0.0000
    61 H32          6.5303     0.0865    22.6780 H            1 INN485   0.0000
    62 H33          7.0947    -1.4387    22.8256 H            1 INN485   0.0000
    63 H34          5.7814    -1.8739    24.6716 H            1 INN485   0.0000
    64 H35          4.5508    -0.9574    24.1128 H            1 INN485   0.0000
    65 H36          6.9533     0.1928    25.2312 H            1 INN485   0.0000
    66 H37          4.3974    -1.6149    22.2850 H            1 INN485   0.0000
@<TRIPOS>BOND
     1    1    2       1
     2    1    8       1
     3    2    3       2
     4    2    4      am
     5    4    5       1
     6    6    7       2
     7    6    8       1
     8    6   13      am
     9    8    9       1
    10    9   10       1
    11   10   11       1
    12   10   12       1
    13   13   14       1
    14   14   15       1
    15   14   19       1
    16   15   16       1
    17   15   17       1
    18   15   18       1
    19   19   20       2
    20   19   21      am
    21   21   22       1
    22   22   23       1
    23   22   25       1
    24   23   24       2
    25   23   29      am
    26   26   27       1
    27   27   28       1
    28   28   29       1
    29    1   30       1
    30    1   31       1
    31    4   32       1
    32   26   66       1
    33    8   33       1
    34    9   34       1
    35    9   35       1
    36   10   36       1
    37   11   37       1
    38   11   38       1
    39   11   39       1
    40   12   40       1
    41   12   41       1
    42   12   42       1
    43   13   43       1
    44   14   44       1
    45   16   45       1
    46   16   46       1
    47   16   47       1
    48   17   48       1
    49   17   49       1
    50   17   50       1
    51   18   51       1
    52   18   52       1
    53   18   53       1
    54   21   54       1
    55   22   55       1
    56   25   56       1
    57   25   57       1
    58   25   58       1
    59   26   59       1
    60   26   60       1
    61   27   61       1
    62   27   62       1
    63   28   63       1
    64   28   64       1
    65   29   65       1
@<TRIPOS>SUBSTRUCTURE
     1 INN485      1 GROUP             4 A     INN     0 **** INN A 485
