@<TRIPOS>MOLECULE
4eb7_PLP_2_ligand
   25    25     1     0     0
SMALL
NO_CHARGES


@<TRIPOS>ATOM
     1 N1          -1.0620    19.1220   -31.1480 N.ar         1 PLP401   1.0000
     2 C2          -1.7340    18.9930   -32.3090 C.ar         1 PLP401   0.0000
     3 C2A         -1.0000    19.2070   -33.6030 C.3          1 PLP401   0.0000
     4 C3          -3.0820    18.6640   -32.3040 C.ar         1 PLP401   0.0000
     5 O3          -3.7590    18.5170   -33.4810 O.3          1 PLP401   0.0000
     6 C4          -3.7260    18.4740   -31.0910 C.ar         1 PLP401   0.0000
     7 C4A         -5.1670    18.1050   -31.0910 C.2          1 PLP401   0.0000
     8 O4A         -5.9630    18.7290   -30.4050 O.2          1 PLP401   0.0000
     9 C5          -3.0040    18.6150   -29.9090 C.ar         1 PLP401   0.0000
    10 C6          -1.6680    18.9500   -29.9660 C.ar         1 PLP401   0.0000
    11 C5A         -3.6110    18.4210   -28.5420 C.3          1 PLP401   0.0000
    12 O4P         -4.1620    17.1110   -28.2900 O.3          1 PLP401   0.0000
    13 P           -5.0270    16.9570   -26.9360 P.3          1 PLP401   0.0000
    14 O1P         -5.7340    15.6320   -26.9580 O.co2        1 PLP401   0.0000
    15 O2P         -3.9590    17.0410   -25.8560 O.co2        1 PLP401  -1.0000
    16 O3P         -6.0030    18.1420   -26.9890 O.co2        1 PLP401  -1.0000
    17 H2A1        -1.6297    19.0769   -34.3689 H            1 PLP401   0.0000
    18 H2A2        -0.6324    20.1366   -33.6279 H            1 PLP401   0.0000
    19 H2A3        -0.2496    18.5498   -33.6732 H            1 PLP401   0.0000
    20 H4          -4.7304    18.2798   -33.4728 H            1 PLP401   0.0000
    21 H4A         -5.4858    17.3431   -31.6548 H            1 PLP401   0.0000
    22 H6          -1.1481    19.0653   -29.1196 H            1 PLP401   0.0000
    23 H5A1        -4.3453    19.0909   -28.4325 H            1 PLP401   0.0000
    24 H5A2        -2.8990    18.5925   -27.8610 H            1 PLP401   0.0000
    25 H9          -0.0889    19.3513   -31.1695 H            1 PLP401   0.0000
@<TRIPOS>BOND
     1    1    2      ar
     2    1   10      ar
     3    2    3       1
     4    2    4      ar
     5    4    5       1
     6    4    6      ar
     7    6    7       1
     8    6    9      ar
     9    7    8       2
    10    9   10      ar
    11    9   11       1
    12   11   12       1
    13   12   13       1
    14   13   14      ar
    15   13   15      ar
    16   13   16      ar
    17    3   17       1
    18    3   18       1
    19    3   19       1
    20    5   20       1
    21    7   21       1
    22   10   22       1
    23   11   23       1
    24   11   24       1
    25    1   25       1
@<TRIPOS>SUBSTRUCTURE
     1 PLP401      1 GROUP             4 B     PLP     0 **** PLP B 401
