@<TRIPOS>MOLECULE
1yu9_GNP_1_ligand
   45    47     1     0     0
SMALL
NO_CHARGES


@<TRIPOS>ATOM
     1 PG          43.4210    22.9220    34.1330 P.3          1 GNP700   0.0000
     2 O1G         42.2050    22.0610    34.3650 O.co2        1 GNP700   0.0000
     3 O2G         43.6380    23.2520    32.6780 O.co2        1 GNP700  -1.0000
     4 O3G         44.5660    22.2100    34.8200 O.co2        1 GNP700  -1.0000
     5 N3B         43.2380    24.3360    34.8990 N.3          1 GNP700   0.0000
     6 PB          44.2600    25.5930    34.8950 P.3          1 GNP700   0.0000
     7 O1B         45.2910    25.3640    35.9270 O.co2        1 GNP700   0.0000
     8 O2B         44.7280    25.8290    33.5140 O.co2        1 GNP700  -1.0000
     9 O3A         43.4430    26.8360    35.3510 O.3          1 GNP700   0.0000
    10 PA          42.9380    28.0250    34.4770 P.3          1 GNP700   0.0000
    11 O1A         44.0870    28.7620    33.9120 O.co2        1 GNP700   0.0000
    12 O2A         41.9290    27.5600    33.4960 O.co2        1 GNP700  -1.0000
    13 O5'         42.2330    28.9970    35.5040 O.3          1 GNP700   0.0000
    14 C5'         41.2620    28.4570    36.4140 C.3          1 GNP700   0.0000
    15 C4'         40.3010    29.5090    36.9410 C.3          1 GNP700   0.0000
    16 O4'         40.9870    30.4830    37.7740 O.3          1 GNP700   0.0000
    17 C3'         39.6290    30.3250    35.8570 C.3          1 GNP700   0.0000
    18 O3'         38.2910    30.6260    36.2650 O.3          1 GNP700   0.0000
    19 C2'         40.5540    31.5380    35.7290 C.3          1 GNP700   0.0000
    20 O2'         39.9110    32.6870    35.2430 O.3          1 GNP700   0.0000
    21 C1'         40.9650    31.7710    37.1720 C.3          1 GNP700   0.0000
    22 N9          42.2800    32.3620    37.4220 N.pl3        1 GNP700   0.0000
    23 C8          43.4910    31.9080    36.9610 C.2          1 GNP700   0.0000
    24 N7          44.5080    32.6090    37.3840 N.2          1 GNP700   0.0000
    25 C5          43.9400    33.5840    38.1820 C.2          1 GNP700   0.0000
    26 C6          44.5630    34.6240    38.9120 C.2          1 GNP700   0.0000
    27 O6          45.7780    34.8720    38.9870 O.2          1 GNP700   0.0000
    28 N1          43.6420    35.3960    39.6240 N.pl3        1 GNP700   0.0000
    29 C2          42.2760    35.1740    39.6050 C.2          1 GNP700   0.0000
    30 N2          41.5300    36.0230    40.3280 N.pl3        1 GNP700   0.0000
    31 N3          41.6820    34.2030    38.9130 N.2          1 GNP700   0.0000
    32 C4          42.5730    33.4440    38.2330 C.2          1 GNP700   0.0000
    33 H3B         42.3757    24.7055    34.5528 H            1 GNP700   0.0000
    34 H5'1        41.7434    28.0471    37.1888 H            1 GNP700   0.0000
    35 H5'2        40.7352    27.7526    35.9383 H            1 GNP700   0.0000
    36 H4'         39.5963    29.0568    37.4877 H            1 GNP700   0.0000
    37 H3'         39.6178    29.8112    34.9992 H            1 GNP700   0.0000
    38 H6          37.7867    29.7745    36.4085 H            1 GNP700   0.0000
    39 H2'         41.3508    31.3158    35.1671 H            1 GNP700   0.0000
    40 H8          39.5364    32.5004    34.3348 H            1 GNP700   0.0000
    41 H1'         40.2675    32.3282    37.6225 H            1 GNP700   0.0000
    42 H10         43.5851    31.1155    36.3584 H            1 GNP700   0.0000
    43 H11         43.9893    36.1519    40.1789 H            1 GNP700   0.0000
    44 H12         40.5361    35.9163    40.3556 H            1 GNP700   0.0000
    45 H13         41.9679    36.7625    40.8393 H            1 GNP700   0.0000
@<TRIPOS>BOND
     1    1    2      ar
     2    1    3      ar
     3    1    4      ar
     4    1    5       1
     5    5    6       1
     6    6    7      ar
     7    6    8      ar
     8    6    9       1
     9    9   10       1
    10   10   11      ar
    11   10   12      ar
    12   10   13       1
    13   13   14       1
    14   14   15       1
    15   15   16       1
    16   15   17       1
    17   16   21       1
    18   17   18       1
    19   17   19       1
    20   19   20       1
    21   19   21       1
    22   21   22       1
    23   22   23       1
    24   22   32       1
    25   23   24       2
    26   24   25       1
    27   25   26       1
    28   25   32       2
    29   26   27       2
    30   26   28       1
    31   28   29       1
    32   29   30       1
    33   29   31       2
    34   31   32       1
    35   30   45       1
    36   30   44       1
    37    5   33       1
    38   28   43       1
    39   23   42       1
    40   14   34       1
    41   14   35       1
    42   15   36       1
    43   17   37       1
    44   18   38       1
    45   19   39       1
    46   20   40       1
    47   21   41       1
@<TRIPOS>SUBSTRUCTURE
     1 GNP700      1 GROUP             4 A     GNP     0 **** GNP A 700
