@<TRIPOS>MOLECULE
1h46_RNP_1_ligand
   41    42     1     0     0
SMALL
NO_CHARGES


@<TRIPOS>ATOM
     1 C1           3.9310     9.0750    25.8320 C.ar         1 RNP1433   0.0000
     2 C2           4.0120     9.7700    24.6360 C.ar         1 RNP1433   0.0000
     3 C3           3.4940    11.0710    24.5410 C.ar         1 RNP1433   0.0000
     4 C4           2.8940    11.7180    25.6300 C.ar         1 RNP1433   0.0000
     5 C5           2.2160    11.6720    27.9920 C.ar         1 RNP1433   0.0000
     6 C6           2.1610    10.9560    29.1890 C.ar         1 RNP1433   0.0000
     7 C7           2.6580     9.6600    29.3120 C.ar         1 RNP1433   0.0000
     8 C8           3.2460     9.0320    28.2190 C.ar         1 RNP1433   0.0000
     9 C9           3.3220     9.7170    27.0170 C.ar         1 RNP1433   0.0000
    10 C10          2.7870    11.0870    26.8670 C.ar         1 RNP1433   0.0000
    11 O1           4.4140     7.8060    25.9980 O.3          1 RNP1433   0.0000
    12 C11          5.1050     7.1650    24.8980 C.3          1 RNP1433   0.0000
    13 C12          5.7800     5.8750    25.3090 C.3          1 RNP1433   0.0000
    14 O2           6.3770     6.0290    26.6000 O.3          1 RNP1433   0.0000
    15 C13          6.8660     5.5380    24.3220 C.3          1 RNP1433   0.0000
    16 N1           7.2460     4.2580    24.2600 N.4          1 RNP1433   1.0000
    17 C14          7.1920     3.3470    25.4010 C.3          1 RNP1433   0.0000
    18 C15          6.8380     1.9490    24.8980 C.3          1 RNP1433   0.0000
    19 C16          8.5500     3.2940    26.0960 C.3          1 RNP1433   0.0000
    20 H1           4.4403     9.3439    23.8391 H            1 RNP1433   0.0000
    21 H2           3.5551    11.5526    23.6668 H            1 RNP1433   0.0000
    22 H3           2.5378    12.6456    25.5172 H            1 RNP1433   0.0000
    23 H4           1.8470    12.6002    27.9437 H            1 RNP1433   0.0000
    24 H5           1.7487    11.3903    29.9899 H            1 RNP1433   0.0000
    25 H6           2.5918     9.1808    30.1872 H            1 RNP1433   0.0000
    26 H7           3.6073     8.1030    28.2993 H            1 RNP1433   0.0000
    27 H8           5.7999     7.7925    24.5468 H            1 RNP1433   0.0000
    28 H9           4.4422     6.9642    24.1767 H            1 RNP1433   0.0000
    29 H10          5.1069     5.1359    25.3349 H            1 RNP1433   0.0000
    30 H11          6.6521     6.9818    26.7285 H            1 RNP1433   0.0000
    31 H12          7.6709     6.0816    24.5600 H            1 RNP1433   0.0000
    32 H13          6.5421     5.8021    23.4135 H            1 RNP1433   0.0000
    33 H14          8.2012     4.2700    23.9643 H            1 RNP1433   0.0000
    34 H15          6.4953     3.6583    26.0473 H            1 RNP1433   0.0000
    35 H16          6.7983     1.3166    25.6716 H            1 RNP1433   0.0000
    36 H17          5.9484     1.9742    24.4420 H            1 RNP1433   0.0000
    37 H18          7.5356     1.6410    24.2511 H            1 RNP1433   0.0000
    38 H19          8.5018     2.6683    26.8746 H            1 RNP1433   0.0000
    39 H20          9.2422     2.9706    25.4508 H            1 RNP1433   0.0000
    40 H21          8.7956     4.2084    26.4179 H            1 RNP1433   0.0000
    41 H22          6.6820     3.8392    23.5483 H            1 RNP1433   0.0000
@<TRIPOS>BOND
     1    1    2      ar
     2    1    9      ar
     3    1   11       1
     4    2    3      ar
     5    3    4      ar
     6    4   10      ar
     7    5    6      ar
     8    5   10      ar
     9    6    7      ar
    10    7    8      ar
    11    8    9      ar
    12    9   10      ar
    13   11   12       1
    14   12   13       1
    15   13   14       1
    16   13   15       1
    17   15   16       1
    18   16   17       1
    19   17   18       1
    20   17   19       1
    21    2   20       1
    22    3   21       1
    23    4   22       1
    24    5   23       1
    25    6   24       1
    26    7   25       1
    27    8   26       1
    28   12   27       1
    29   12   28       1
    30   13   29       1
    31   14   30       1
    32   15   31       1
    33   15   32       1
    34   16   33       1
    35   17   34       1
    36   18   35       1
    37   18   36       1
    38   18   37       1
    39   19   38       1
    40   19   39       1
    41   19   40       1
    42   16   41       1
@<TRIPOS>SUBSTRUCTURE
     1 RNP1433     1 GROUP             4 X     RNP     0 **** RNP X1433
