@<TRIPOS>MOLECULE
2paa_ATP_1_ligand
   43    45     1     0     0
SMALL
NO_CHARGES


@<TRIPOS>ATOM
     1 PG          -4.9610    -7.1310    -1.1440 P.3          1 ATP500   0.0000
     2 O1G         -6.2390    -7.0510    -0.4020 O.co2        1 ATP500   0.0000
     3 O2G         -4.9890    -6.2830    -2.5140 O.co2        1 ATP500  -1.0000
     4 O3G         -3.7210    -6.5410    -0.3020 O.co2        1 ATP500  -1.0000
     5 PB          -5.6230    -9.7360    -2.0390 P.3          1 ATP500   0.0000
     6 O1B         -6.9890    -9.2330    -1.7680 O.co2        1 ATP500   0.0000
     7 O2B         -5.2270   -11.0360    -1.4490 O.co2        1 ATP500  -1.0000
     8 O3B         -4.5490    -8.6400    -1.5400 O.3          1 ATP500   0.0000
     9 PA          -5.3620   -11.1690    -4.4580 P.3          1 ATP500   0.0000
    10 O1A         -4.6850   -10.9130    -5.7500 O.co2        1 ATP500   0.0000
    11 O2A         -4.8360   -12.2520    -3.5980 O.co2        1 ATP500  -1.0000
    12 O3A         -5.3820    -9.7840    -3.6330 O.3          1 ATP500   0.0000
    13 O5'         -6.9250   -11.4270    -4.7380 O.3          1 ATP500   0.0000
    14 C5'         -7.8580   -10.3430    -4.6970 C.3          1 ATP500   0.0000
    15 C4'         -9.2600   -10.8750    -4.9950 C.3          1 ATP500   0.0000
    16 O4'         -9.6640   -11.9150    -4.0960 O.3          1 ATP500   0.0000
    17 C3'        -10.3750    -9.8410    -4.8390 C.3          1 ATP500   0.0000
    18 O3'        -10.5140    -9.1070    -6.0580 O.3          1 ATP500   0.0000
    19 C2'        -11.6000   -10.7330    -4.6190 C.3          1 ATP500   0.0000
    20 O2'        -12.4690   -10.6430    -5.7510 O.3          1 ATP500   0.0000
    21 C1'        -11.0020   -12.1410    -4.5570 C.3          1 ATP500   0.0000
    22 N9         -11.7490   -13.0310    -3.6440 N.pl3        1 ATP500   0.0000
    23 C8         -11.9310   -12.8380    -2.3390 C.2          1 ATP500   0.0000
    24 N7         -12.6380   -13.8440    -1.8340 N.2          1 ATP500   0.0000
    25 C5         -12.9100   -14.6850    -2.8250 C.ar         1 ATP500   0.0000
    26 C6         -13.5950   -15.8920    -2.9060 C.ar         1 ATP500   0.0000
    27 N6         -14.1590   -16.4200    -1.8250 N.pl3        1 ATP500   0.0000
    28 N1         -13.6800   -16.5070    -4.0930 N.ar         1 ATP500   0.0000
    29 C2         -13.1270   -15.9860    -5.1750 C.ar         1 ATP500   0.0000
    30 N3         -12.4710   -14.8420    -5.1320 N.ar         1 ATP500   0.0000
    31 C4         -12.3450   -14.1710    -3.9800 C.ar         1 ATP500   0.0000
    32 H5'1        -7.6069    -9.6595    -5.3824 H            1 ATP500   0.0000
    33 H5'2        -7.8450    -9.9247    -3.7888 H            1 ATP500   0.0000
    34 H4'         -9.2783   -11.2309    -5.9293 H            1 ATP500   0.0000
    35 H3'        -10.2126    -9.2363    -4.0593 H            1 ATP500   0.0000
    36 H5         -11.2431    -8.4299    -5.9581 H            1 ATP500   0.0000
    37 H2'        -12.0764   -10.4992    -3.7714 H            1 ATP500   0.0000
    38 H7         -12.7652    -9.6952    -5.8693 H            1 ATP500   0.0000
    39 H1'        -10.9804   -12.5393    -5.4740 H            1 ATP500   0.0000
    40 H9         -11.5882   -12.0559    -1.8186 H            1 ATP500   0.0000
    41 H10        -14.6501   -17.2886    -1.8909 H            1 ATP500   0.0000
    42 H11        -14.0923   -15.9488    -0.9455 H            1 ATP500   0.0000
    43 H12        -13.2078   -16.4702    -6.0462 H            1 ATP500   0.0000
@<TRIPOS>BOND
     1    1    2      ar
     2    1    3      ar
     3    1    4      ar
     4    1    8       1
     5    5    6      ar
     6    5    7      ar
     7    5    8       1
     8    5   12       1
     9    9   10      ar
    10    9   11      ar
    11    9   12       1
    12    9   13       1
    13   13   14       1
    14   14   15       1
    15   15   16       1
    16   15   17       1
    17   16   21       1
    18   17   18       1
    19   17   19       1
    20   19   20       1
    21   19   21       1
    22   21   22       1
    23   22   23       1
    24   22   31       1
    25   23   24       2
    26   24   25       1
    27   25   26      ar
    28   25   31      ar
    29   26   27       1
    30   26   28      ar
    31   28   29      ar
    32   29   30      ar
    33   30   31      ar
    34   29   43       1
    35   27   42       1
    36   27   41       1
    37   23   40       1
    38   14   32       1
    39   14   33       1
    40   15   34       1
    41   17   35       1
    42   18   36       1
    43   19   37       1
    44   20   38       1
    45   21   39       1
@<TRIPOS>SUBSTRUCTURE
     1 ATP500      1 GROUP             4 A     ATP     0 **** ATP A 500
