@<TRIPOS>MOLECULE
4l65_C2F_1_ligand
   56    58     1     0     0
SMALL
NO_CHARGES


@<TRIPOS>ATOM
     1 N1         -19.9470     9.8120   -25.7230 N.2          1 C2F802   0.0000
     2 C2         -19.7900     8.5560   -26.2020 C.2          1 C2F802   0.0000
     3 NA2        -18.9340     8.3610   -27.2360 N.pl3        1 C2F802   0.0000
     4 N3         -20.4680     7.5070   -25.6890 N.pl3        1 C2F802   0.0000
     5 C4         -21.3270     7.6130   -24.6600 C.2          1 C2F802   0.0000
     6 O4         -21.9360     6.6250   -24.2010 O.2          1 C2F802   0.0000
     7 C4A        -21.5500     8.9480   -24.0940 C.2          1 C2F802   0.0000
     8 N5         -22.3980     9.2430   -23.0380 N.pl3        1 C2F802   0.0000
     9 C6         -21.9500    10.3760   -22.2050 C.3          1 C2F802   0.0000
    10 C7         -22.0210    11.5500   -23.1780 C.3          1 C2F802   0.0000
    11 N8         -21.0090    11.3250   -24.2100 N.pl3        1 C2F802   0.0000
    12 C8A        -20.8040    10.0730   -24.7020 C.2          1 C2F802   0.0000
    13 C9         -20.4700    10.2080   -21.7510 C.3          1 C2F802   0.0000
    14 N10        -20.4000     9.0640   -20.8990 N.pl3        1 C2F802   0.0000
    15 C11        -23.6550     8.5350   -22.8210 C.3          1 C2F802   0.0000
    16 C12        -18.1320     5.6240   -21.0220 C.ar         1 C2F802   0.0000
    17 C13        -19.2150     5.7850   -20.1660 C.ar         1 C2F802   0.0000
    18 C14        -19.9390     6.9590   -20.1700 C.ar         1 C2F802   0.0000
    19 C15        -19.5840     8.0080   -21.0100 C.ar         1 C2F802   0.0000
    20 C16        -18.4930     7.8720   -21.8800 C.ar         1 C2F802   0.0000
    21 C17        -17.7680     6.6700   -21.8860 C.ar         1 C2F802   0.0000
    22 C          -17.4400     4.2910   -20.9410 C.2          1 C2F802   0.0000
    23 O          -18.2050     3.3260   -20.8080 O.2          1 C2F802   0.0000
    24 N          -16.0870     4.2210   -20.9590 N.am         1 C2F802   0.0000
    25 CA         -15.2870     2.9980   -20.6980 C.3          1 C2F802   0.0000
    26 CB         -14.6380     2.3600   -21.9380 C.3          1 C2F802   0.0000
    27 CG         -15.6200     2.2710   -23.1030 C.3          1 C2F802   0.0000
    28 CD         -15.4530     1.0340   -23.9760 C.2          1 C2F802   0.0000
    29 OE1        -16.0770     1.0210   -25.1630 O.co2        1 C2F802   0.0000
    30 OE2        -14.7920     0.0490   -23.6280 O.co2        1 C2F802  -1.0000
    31 CT         -14.1860     3.2500   -19.6910 C.2          1 C2F802   0.0000
    32 O1         -14.0480     2.5450   -18.7040 O.co2        1 C2F802   0.0000
    33 O2         -13.3260     4.2490   -19.8360 O.co2        1 C2F802  -1.0000
    34 HA21       -18.8003     7.4425   -27.6080 H            1 C2F802   0.0000
    35 HA22       -18.4366     9.1358   -27.6262 H            1 C2F802   0.0000
    36 H3         -22.5571    10.5147   -21.4226 H            1 C2F802   0.0000
    37 H4         -21.8329    12.4055   -22.6956 H            1 C2F802   0.0000
    38 H5         -22.9293    11.5947   -23.5940 H            1 C2F802   0.0000
    39 H6         -20.4674    12.0919   -24.5542 H            1 C2F802   0.0000
    40 H7         -20.1731    11.0221   -21.2519 H            1 C2F802   0.0000
    41 H8         -19.8828    10.0737   -22.5492 H            1 C2F802   0.0000
    42 H9         -21.0362     9.0498   -20.1276 H            1 C2F802   0.0000
    43 H10        -24.1087     8.9025   -22.0092 H            1 C2F802   0.0000
    44 H11        -24.2475     8.6559   -23.6175 H            1 C2F802   0.0000
    45 H12        -23.4704     7.5613   -22.6876 H            1 C2F802   0.0000
    46 H13        -19.4708     5.0454   -19.5435 H            1 C2F802   0.0000
    47 H14        -20.7273     7.0565   -19.5624 H            1 C2F802   0.0000
    48 H15        -18.2345     8.6221   -22.4888 H            1 C2F802   0.0000
    49 H16        -16.9915     6.5582   -22.5061 H            1 C2F802   0.0000
    50 H17        -15.5864     5.0618   -21.1649 H            1 C2F802   0.0000
    51 HA         -15.9035     2.3179   -20.3013 H            1 C2F802   0.0000
    52 HB1        -14.3276     1.4386   -21.7041 H            1 C2F802   0.0000
    53 HB2        -13.8541     2.9152   -22.2160 H            1 C2F802   0.0000
    54 HG1        -15.4956     3.0790   -23.6789 H            1 C2F802   0.0000
    55 HG2        -16.5478     2.2672   -22.7300 H            1 C2F802   0.0000
    56 H23        -20.3238     6.6047   -26.0953 H            1 C2F802   0.0000
@<TRIPOS>BOND
     1    1    2       2
     2    1   12       1
     3    2    3       1
     4    2    4       1
     5    4    5       1
     6    5    6       2
     7    5    7       1
     8    7    8       1
     9    7   12       2
    10    8    9       1
    11    8   15       1
    12    9   10       1
    13    9   13       1
    14   10   11       1
    15   11   12       1
    16   13   14       1
    17   14   19       1
    18   16   17      ar
    19   16   21      ar
    20   16   22       1
    21   17   18      ar
    22   18   19      ar
    23   19   20      ar
    24   20   21      ar
    25   22   23       2
    26   22   24      am
    27   24   25       1
    28   25   26       1
    29   25   31       1
    30   26   27       1
    31   27   28       1
    32   28   29      ar
    33   28   30      ar
    34   31   32      ar
    35   31   33      ar
    36    4   56       1
    37    3   34       1
    38    3   35       1
    39    9   36       1
    40   10   37       1
    41   10   38       1
    42   11   39       1
    43   13   40       1
    44   13   41       1
    45   14   42       1
    46   15   43       1
    47   15   44       1
    48   15   45       1
    49   17   46       1
    50   18   47       1
    51   20   48       1
    52   21   49       1
    53   24   50       1
    54   25   51       1
    55   26   52       1
    56   26   53       1
    57   27   54       1
    58   27   55       1
@<TRIPOS>SUBSTRUCTURE
     1 C2F802      1 GROUP             4 A     C2F     0 **** C2F A 802
