@<TRIPOS>MOLECULE
2i51_FMN_1_ligand
   50    52     1     0     0
SMALL
NO_CHARGES


@<TRIPOS>ATOM
     1 N1          39.3510    60.8870     7.7560 N.2          1 FMN300   0.0000
     2 C2          39.6460    60.8120     6.4460 C.2          1 FMN300   0.0000
     3 O2          39.0890    61.5270     5.6070 O.2          1 FMN300   0.0000
     4 N3          40.6390    59.9510     6.0220 N.pl3        1 FMN300   0.0000
     5 C4          41.3230    59.1380     6.8760 C.2          1 FMN300   0.0000
     6 O4          42.3400    58.4490     6.4930 O.2          1 FMN300   0.0000
     7 C4A         41.0290    59.2050     8.2290 C.2          1 FMN300   0.0000
     8 N5          41.6720    58.3850     9.1410 N.2          1 FMN300   0.0000
     9 C5A         41.4690    58.6470    10.5220 C.ar         1 FMN300   0.0000
    10 C6          42.1890    57.9240    11.4480 C.ar         1 FMN300   0.0000
    11 C7          42.0220    58.1070    12.8310 C.ar         1 FMN300   0.0000
    12 C7M         42.9980    57.4920    13.8000 C.3          1 FMN300   0.0000
    13 C8          41.0470    59.0180    13.2340 C.ar         1 FMN300   0.0000
    14 C8M         41.0000    59.4480    14.7060 C.3          1 FMN300   0.0000
    15 C9          40.3010    59.7370    12.2980 C.ar         1 FMN300   0.0000
    16 C9A         40.4800    59.5220    10.9390 C.ar         1 FMN300   0.0000
    17 N10         39.7430    60.2000     9.9950 N.pl3        1 FMN300   0.0000
    18 C10         40.0340    60.1040     8.6690 C.2          1 FMN300   0.0000
    19 C1'         38.5500    61.0610    10.3950 C.3          1 FMN300   0.0000
    20 C2'         39.0200    62.5210    10.4210 C.3          1 FMN300   0.0000
    21 O2'         39.9370    62.7440    11.5220 O.3          1 FMN300   0.0000
    22 C3'         37.8650    63.5410    10.4550 C.3          1 FMN300   0.0000
    23 O3'         37.0230    63.1990    11.5380 O.3          1 FMN300   0.0000
    24 C4'         37.0800    63.4070     9.1330 C.3          1 FMN300   0.0000
    25 O4'         37.9020    63.2390     7.9740 O.3          1 FMN300   0.0000
    26 C5'         36.2940    64.7030     8.9440 C.3          1 FMN300   0.0000
    27 O5'         37.2080    65.7910     8.8840 O.3          1 FMN300   0.0000
    28 P           36.8070    67.1230     8.1490 P.3          1 FMN300   0.0000
    29 O1P         36.7240    66.9240     6.6780 O.co2        1 FMN300   0.0000
    30 O2P         35.4140    67.5230     8.7300 O.co2        1 FMN300  -1.0000
    31 O3P         37.7810    68.1730     8.5750 O.co2        1 FMN300  -1.0000
    32 H1          40.8656    59.9228     5.0484 H            1 FMN300   0.0000
    33 H2          42.8513    57.2477    11.1255 H            1 FMN300   0.0000
    34 H7M1        42.7289    57.7220    14.7353 H            1 FMN300   0.0000
    35 H7M2        42.9978    56.4983    13.6878 H            1 FMN300   0.0000
    36 H7M3        43.9152    57.8475    13.6201 H            1 FMN300   0.0000
    37 H8M1        40.2530    60.0993    14.8393 H            1 FMN300   0.0000
    38 H8M2        40.8494    58.6453    15.2831 H            1 FMN300   0.0000
    39 H8M3        41.8670    59.8796    14.9550 H            1 FMN300   0.0000
    40 H9          39.6324    60.4122    12.6096 H            1 FMN300   0.0000
    41 H1'1        38.2235    60.7916    11.3010 H            1 FMN300   0.0000
    42 H1'2        37.8122    60.9521     9.7288 H            1 FMN300   0.0000
    43 H2'         39.5299    62.6814     9.5758 H            1 FMN300   0.0000
    44 H13         40.7342    62.1494    11.4175 H            1 FMN300   0.0000
    45 H3'         38.2183    64.4703    10.5627 H            1 FMN300   0.0000
    46 H15         36.9820    63.9626    12.1824 H            1 FMN300   0.0000
    47 H4'         36.4427    62.6395     9.2019 H            1 FMN300   0.0000
    48 H17         38.0622    62.2644     7.8174 H            1 FMN300   0.0000
    49 H5'1        35.6688    64.8318     9.7137 H            1 FMN300   0.0000
    50 H5'2        35.7704    64.6571     8.0933 H            1 FMN300   0.0000
@<TRIPOS>BOND
     1    1    2       1
     2    1   18       2
     3    2    3       2
     4    2    4       1
     5    4    5       1
     6    5    6       2
     7    5    7       1
     8    7    8       2
     9    7   18       1
    10    8    9       1
    11    9   10      ar
    12    9   16      ar
    13   10   11      ar
    14   11   12       1
    15   11   13      ar
    16   13   14       1
    17   13   15      ar
    18   15   16      ar
    19   16   17       1
    20   17   18       1
    21   17   19       1
    22   19   20       1
    23   20   21       1
    24   20   22       1
    25   22   23       1
    26   22   24       1
    27   24   25       1
    28   24   26       1
    29   26   27       1
    30   27   28       1
    31   28   29      ar
    32   28   30      ar
    33   28   31      ar
    34    4   32       1
    35   10   33       1
    36   12   34       1
    37   12   35       1
    38   12   36       1
    39   14   37       1
    40   14   38       1
    41   14   39       1
    42   15   40       1
    43   19   41       1
    44   19   42       1
    45   20   43       1
    46   21   44       1
    47   22   45       1
    48   23   46       1
    49   24   47       1
    50   25   48       1
    51   26   49       1
    52   26   50       1
@<TRIPOS>SUBSTRUCTURE
     1 FMN300      1 GROUP             4 A     FMN     0 **** FMN A 300
