@<TRIPOS>MOLECULE
3hng_8ST_1_ligand
   40    42     1     0     0
SMALL
NO_CHARGES


@<TRIPOS>ATOM
     1 CL16         5.5950    23.5560    28.5450 Cl           1 8ST2001   0.0000
     2 C13          5.8570    22.5350    29.9480 C.ar         1 8ST2001   0.0000
     3 C12          7.1320    22.4270    30.4910 C.ar         1 8ST2001   0.0000
     4 C11          7.2760    21.5260    31.6030 C.ar         1 8ST2001   0.0000
     5 C14          4.6440    21.8010    30.4440 C.ar         1 8ST2001   0.0000
     6 C15          4.8000    20.9790    31.5490 C.ar         1 8ST2001   0.0000
     7 C10          6.1240    20.7310    31.9900 C.ar         1 8ST2001   0.0000
     8 N9           6.1910    19.9470    33.1760 N.am         1 8ST2001   0.0000
     9 C7           5.6500    18.6140    33.1600 C.2          1 8ST2001   0.0000
    10 O8           5.1610    18.1740    32.1770 O.2          1 8ST2001   0.0000
    11 C2           5.7740    17.9040    34.5140 C.ar         1 8ST2001   0.0000
    12 C3           5.4180    16.5660    34.7250 C.ar         1 8ST2001   0.0000
    13 C4           5.3230    15.9940    36.0290 C.ar         1 8ST2001   0.0000
    14 C5           5.6340    16.8190    37.1680 C.ar         1 8ST2001   0.0000
    15 C6           5.9390    18.2230    36.9840 C.ar         1 8ST2001   0.0000
    16 C1           5.9890    18.7690    35.6840 C.ar         1 8ST2001   0.0000
    17 N17          5.0380    15.6590    33.7080 N.pl3        1 8ST2001   0.0000
    18 C18          4.6180    14.3170    33.3600 C.3          1 8ST2001   0.0000
    19 C19          3.2400    13.9760    33.9390 C.ar         1 8ST2001   0.0000
    20 C24          2.8250    12.6960    33.9880 C.ar         1 8ST2001   0.0000
    21 C23          1.4910    12.4340    34.4180 C.ar         1 8ST2001   0.0000
    22 N22          0.5460    13.4920    34.4960 N.ar         1 8ST2001   0.0000
    23 C21          0.9730    14.8240    34.3800 C.ar         1 8ST2001   0.0000
    24 C20          2.2690    15.0700    33.9830 C.ar         1 8ST2001   0.0000
    25 H1           7.9059    22.9466    30.1288 H            1 8ST2001   0.0000
    26 H2           8.1433    21.4494    32.0948 H            1 8ST2001   0.0000
    27 H3           3.7568    21.9017    29.9937 H            1 8ST2001   0.0000
    28 H4           4.0117    20.5778    32.0154 H            1 8ST2001   0.0000
    29 H5           6.6073    20.3166    34.0067 H            1 8ST2001   0.0000
    30 H6           5.0464    15.0406    36.1494 H            1 8ST2001   0.0000
    31 H7           5.6394    16.4224    38.0860 H            1 8ST2001   0.0000
    32 H8           6.1141    18.8051    37.7781 H            1 8ST2001   0.0000
    33 H9           6.1706    19.7443    35.5580 H            1 8ST2001   0.0000
    34 H10          5.0762    16.1706    32.8496 H            1 8ST2001   0.0000
    35 H11          5.2880    13.6665    33.7176 H            1 8ST2001   0.0000
    36 H12          4.5773    14.2399    32.3638 H            1 8ST2001   0.0000
    37 H13          3.4367    11.9483    33.7295 H            1 8ST2001   0.0000
    38 H14          1.2200    11.5037    34.6652 H            1 8ST2001   0.0000
    39 H15          0.3491    15.5791    34.5814 H            1 8ST2001   0.0000
    40 H16          2.5461    15.9956    33.7250 H            1 8ST2001   0.0000
@<TRIPOS>BOND
     1    1    2       1
     2    2    3      ar
     3    2    5      ar
     4    3    4      ar
     5    4    7      ar
     6    5    6      ar
     7    6    7      ar
     8    7    8       1
     9    8    9      am
    10    9   10       2
    11    9   11       1
    12   11   12      ar
    13   11   16      ar
    14   12   13      ar
    15   12   17       1
    16   13   14      ar
    17   14   15      ar
    18   15   16      ar
    19   17   18       1
    20   18   19       1
    21   19   20      ar
    22   19   24      ar
    23   20   21      ar
    24   21   22      ar
    25   22   23      ar
    26   23   24      ar
    27    3   25       1
    28    4   26       1
    29    5   27       1
    30    6   28       1
    31    8   29       1
    32   13   30       1
    33   14   31       1
    34   15   32       1
    35   16   33       1
    36   17   34       1
    37   18   35       1
    38   18   36       1
    39   20   37       1
    40   21   38       1
    41   23   39       1
    42   24   40       1
@<TRIPOS>SUBSTRUCTURE
     1 8ST2001     1 GROUP             4 A     8ST     0 **** 8ST A2001
