@<TRIPOS>MOLECULE
3ab8_ATP_1_ligand
   43    45     1     0     0
SMALL
NO_CHARGES


@<TRIPOS>ATOM
     1 PG          30.1400    40.3880    11.0200 P.3          1 ATP510   0.0000
     2 O1G         31.0780    39.8150    12.0170 O.co2        1 ATP510   0.0000
     3 O2G         30.9910    41.1190     9.8850 O.co2        1 ATP510  -1.0000
     4 O3G         29.2670    39.2270    10.3590 O.co2        1 ATP510  -1.0000
     5 PB          27.6430    41.3070    11.7870 P.3          1 ATP510   0.0000
     6 O1B         27.2340    39.8820    11.8670 O.co2        1 ATP510   0.0000
     7 O2B         27.1050    42.0430    13.1010 O.co2        1 ATP510  -1.0000
     8 O3B         29.2540    41.5340    11.7690 O.3          1 ATP510   0.0000
     9 PA          26.5420    41.2890     9.2200 P.3          1 ATP510   0.0000
    10 O1A         27.1640    41.9540     8.0510 O.co2        1 ATP510   0.0000
    11 O2A         26.9500    39.7530     9.2860 O.co2        1 ATP510  -1.0000
    12 O3A         26.9450    42.1220    10.5570 O.3          1 ATP510   0.0000
    13 O5'         24.9230    41.3110     9.1720 O.3          1 ATP510   0.0000
    14 C5'         24.4030    42.3840     8.3910 C.3          1 ATP510   0.0000
    15 C4'         23.1430    41.8620     7.6860 C.3          1 ATP510   0.0000
    16 O4'         23.5560    40.8410     6.7240 O.3          1 ATP510   0.0000
    17 C3'         22.1650    41.1250     8.6390 C.3          1 ATP510   0.0000
    18 O3'         21.2730    42.0020     9.3510 O.3          1 ATP510   0.0000
    19 C2'         21.4520    40.1890     7.6790 C.3          1 ATP510   0.0000
    20 O2'         20.3750    40.8770     7.0330 O.3          1 ATP510   0.0000
    21 C1'         22.5630    39.7740     6.6900 C.3          1 ATP510   0.0000
    22 N9          23.1690    38.4980     7.1320 N.pl3        1 ATP510   0.0000
    23 C8          24.3090    38.3380     7.8860 C.2          1 ATP510   0.0000
    24 N7          24.5440    37.0800     8.0940 N.2          1 ATP510   0.0000
    25 C5          23.5830    36.3460     7.4960 C.ar         1 ATP510   0.0000
    26 C6          23.3060    34.9590     7.3800 C.ar         1 ATP510   0.0000
    27 N6          24.1310    34.0300     7.9720 N.pl3        1 ATP510   0.0000
    28 N1          22.2200    34.5690     6.6820 N.ar         1 ATP510   0.0000
    29 C2          21.4010    35.4540     6.0970 C.ar         1 ATP510   0.0000
    30 N3          21.6230    36.7690     6.1830 N.ar         1 ATP510   0.0000
    31 C4          22.6870    37.2490     6.8640 C.ar         1 ATP510   0.0000
    32 H5'1        25.0793    42.6742     7.7139 H            1 ATP510   0.0000
    33 H5'2        24.1701    43.1565     8.9818 H            1 ATP510   0.0000
    34 H4'         22.6729    42.6099     7.2174 H            1 ATP510   0.0000
    35 H3'         22.6902    40.5848     9.2965 H            1 ATP510   0.0000
    36 H5          21.8060    42.6387     9.9083 H            1 ATP510   0.0000
    37 H2'         21.1072    39.3880     8.1684 H            1 ATP510   0.0000
    38 H7          19.6481    40.2264     6.8132 H            1 ATP510   0.0000
    39 H1'         22.1882    39.6786     5.7678 H            1 ATP510   0.0000
    40 H9          24.8770    39.0875     8.2261 H            1 ATP510   0.0000
    41 H10         23.9287    33.0545     7.8855 H            1 ATP510   0.0000
    42 H11         24.9327    34.3305     8.4887 H            1 ATP510   0.0000
    43 H12         20.6076    35.1236     5.5857 H            1 ATP510   0.0000
@<TRIPOS>BOND
     1    1    2      ar
     2    1    3      ar
     3    1    4      ar
     4    1    8       1
     5    5    6      ar
     6    5    7      ar
     7    5    8       1
     8    5   12       1
     9    9   10      ar
    10    9   11      ar
    11    9   12       1
    12    9   13       1
    13   13   14       1
    14   14   15       1
    15   15   16       1
    16   15   17       1
    17   16   21       1
    18   17   18       1
    19   17   19       1
    20   19   20       1
    21   19   21       1
    22   21   22       1
    23   22   23       1
    24   22   31       1
    25   23   24       2
    26   24   25       1
    27   25   26      ar
    28   25   31      ar
    29   26   27       1
    30   26   28      ar
    31   28   29      ar
    32   29   30      ar
    33   30   31      ar
    34   29   43       1
    35   27   42       1
    36   27   41       1
    37   23   40       1
    38   14   32       1
    39   14   33       1
    40   15   34       1
    41   17   35       1
    42   18   36       1
    43   19   37       1
    44   20   38       1
    45   21   39       1
@<TRIPOS>SUBSTRUCTURE
     1 ATP510      1 GROUP             4 A     ATP     0 **** ATP A 510
