@<TRIPOS>MOLECULE
1gee_NAD_2_ligand
   70    74     1     0     0
SMALL
NO_CHARGES


@<TRIPOS>ATOM
     1 PA          47.9300   -12.1460    21.7230 P.3          1 NAD2262   0.0000
     2 O1A         46.6420   -12.6290    21.1730 O.co2        1 NAD2262   0.0000
     3 O2A         48.5130   -12.9540    22.8240 O.co2        1 NAD2262  -1.0000
     4 O5B         47.8380   -10.6330    22.2440 O.3          1 NAD2262   0.0000
     5 C5B         46.8620    -9.7390    21.6870 C.3          1 NAD2262   0.0000
     6 C4B         46.0340    -9.2100    22.8330 C.3          1 NAD2262   0.0000
     7 O4B         45.0660    -8.3290    22.2360 O.3          1 NAD2262   0.0000
     8 C3B         45.2450   -10.2950    23.5660 C.3          1 NAD2262   0.0000
     9 O3B         45.6320   -10.3110    24.9470 O.3          1 NAD2262   0.0000
    10 C2B         43.8000    -9.9090    23.2630 C.3          1 NAD2262   0.0000
    11 O2B         42.8970   -10.2520    24.3410 O.3          1 NAD2262   0.0000
    12 C1B         43.9170    -8.4240    23.0030 C.3          1 NAD2262   0.0000
    13 N9A         42.8240    -7.8630    22.2310 N.pl3        1 NAD2262   0.0000
    14 C8A         42.3150    -8.3070    21.0430 C.2          1 NAD2262   0.0000
    15 N7A         41.2980    -7.5740    20.5960 N.2          1 NAD2262   0.0000
    16 C5A         41.1460    -6.5980    21.5600 C.ar         1 NAD2262   0.0000
    17 C6A         40.2360    -5.5250    21.6650 C.ar         1 NAD2262   0.0000
    18 N6A         39.2860    -5.2250    20.8040 N.pl3        1 NAD2262   0.0000
    19 N1A         40.3380    -4.7100    22.7650 N.ar         1 NAD2262   0.0000
    20 C2A         41.3220    -5.0040    23.6810 C.ar         1 NAD2262   0.0000
    21 N3A         42.2180    -5.9710    23.6870 N.ar         1 NAD2262   0.0000
    22 C4A         42.0770    -6.7520    22.5770 C.ar         1 NAD2262   0.0000
    23 O3          48.9270   -11.9830    20.5500 O.3          1 NAD2262   0.0000
    24 PN          50.4810   -11.4780    20.4950 P.3          1 NAD2262   0.0000
    25 O1N         51.2300   -12.5710    19.8680 O.co2        1 NAD2262   0.0000
    26 O2N         50.9170   -11.1680    21.8750 O.co2        1 NAD2262  -1.0000
    27 O5D         50.3320   -10.2720    19.4990 O.3          1 NAD2262   0.0000
    28 C5D         50.6160    -8.9650    20.0010 C.3          1 NAD2262   0.0000
    29 C4D         50.4900    -7.9820    18.8620 C.3          1 NAD2262   0.0000
    30 O4D         51.6550    -8.2780    18.0480 O.3          1 NAD2262   0.0000
    31 C3D         49.3040    -8.1080    17.9010 C.3          1 NAD2262   0.0000
    32 O3D         48.9780    -6.8110    17.3840 O.3          1 NAD2262   0.0000
    33 C2D         49.8630    -9.0140    16.8100 C.3          1 NAD2262   0.0000
    34 O2D         49.1730    -8.8260    15.5640 O.3          1 NAD2262   0.0000
    35 C1D         51.2810    -8.5570    16.7370 C.3          1 NAD2262   0.0000
    36 N1N         52.1640    -9.5650    16.1730 N.ar         1 NAD2262   1.0000
    37 C2N         52.4250   -10.7950    16.8050 C.ar         1 NAD2262   0.0000
    38 C3N         53.3220   -11.8010    16.1640 C.ar         1 NAD2262   0.0000
    39 C7N         53.5500   -13.0710    16.8610 C.2          1 NAD2262   0.0000
    40 O7N         54.2950   -13.8880    16.2960 O.2          1 NAD2262   0.0000
    41 N7N         53.0010   -13.3730    18.0430 N.am         1 NAD2262   0.0000
    42 C4N         53.9670   -11.4610    14.8460 C.ar         1 NAD2262   0.0000
    43 C5N         53.5900   -10.1250    14.3360 C.ar         1 NAD2262   0.0000
    44 C6N         52.7810    -9.2800    14.9310 C.ar         1 NAD2262   0.0000
    45 H5B1        46.2779   -10.2296    21.0404 H            1 NAD2262   0.0000
    46 H5B2        47.3184    -8.9835    21.2170 H            1 NAD2262   0.0000
    47 H4B         46.6118    -8.7068    23.4756 H            1 NAD2262   0.0000
    48 H3B         45.4439   -11.1848    23.1553 H            1 NAD2262   0.0000
    49 H5          46.3992   -10.9403    25.0709 H            1 NAD2262   0.0000
    50 H2B         43.5041   -10.3685    22.4256 H            1 NAD2262   0.0000
    51 H7          42.9254   -11.2391    24.4983 H            1 NAD2262   0.0000
    52 H1B         44.0288    -7.9264    23.8631 H            1 NAD2262   0.0000
    53 H8A         42.6718    -9.1048    20.5570 H            1 NAD2262   0.0000
    54 H6A1        38.6900    -4.4395    20.9707 H            1 NAD2262   0.0000
    55 H6A2        39.1605    -5.7827    19.9835 H            1 NAD2262   0.0000
    56 H2A         41.3640    -4.3864    24.4664 H            1 NAD2262   0.0000
    57 H5D1        51.5454    -8.9387    20.3691 H            1 NAD2262   0.0000
    58 H5D2        49.9648    -8.7312    20.7230 H            1 NAD2262   0.0000
    59 H4D         50.5474    -7.0468    19.2114 H            1 NAD2262   0.0000
    60 H3D         48.5157    -8.5272    18.3514 H            1 NAD2262   0.0000
    61 H17         48.7352    -6.2024    18.1394 H            1 NAD2262   0.0000
    62 H2D         49.8183    -9.9719    17.0937 H            1 NAD2262   0.0000
    63 H19         48.3956    -9.4531    15.5156 H            1 NAD2262   0.0000
    64 H1D         51.3349    -7.7219    16.1895 H            1 NAD2262   0.0000
    65 H2N         52.0062   -10.9965    17.6904 H            1 NAD2262   0.0000
    66 H7N1        53.1923   -14.2557    18.4722 H            1 NAD2262   0.0000
    67 H7N2        52.3994   -12.7160    18.4973 H            1 NAD2262   0.0000
    68 H4N         54.5888   -12.0778    14.3634 H            1 NAD2262   0.0000
    69 H5N         53.9856    -9.8410    13.4626 H            1 NAD2262   0.0000
    70 H6N         52.5934    -8.4020    14.4906 H            1 NAD2262   0.0000
@<TRIPOS>BOND
     1    1    2      ar
     2    1    3      ar
     3    1    4       1
     4    1   23       1
     5    4    5       1
     6    5    6       1
     7    6    7       1
     8    6    8       1
     9    7   12       1
    10    8    9       1
    11    8   10       1
    12   10   11       1
    13   10   12       1
    14   12   13       1
    15   13   14       1
    16   13   22       1
    17   14   15       2
    18   15   16       1
    19   16   17      ar
    20   16   22      ar
    21   17   18       1
    22   17   19      ar
    23   19   20      ar
    24   20   21      ar
    25   21   22      ar
    26   23   24       1
    27   24   25      ar
    28   24   26      ar
    29   24   27       1
    30   27   28       1
    31   28   29       1
    32   29   30       1
    33   29   31       1
    34   30   35       1
    35   31   32       1
    36   31   33       1
    37   33   34       1
    38   33   35       1
    39   35   36       1
    40   36   37      ar
    41   36   44      ar
    42   37   38      ar
    43   38   39       1
    44   38   42      ar
    45   39   40       2
    46   39   41      am
    47   42   43      ar
    48   43   44      ar
    49   44   70       1
    50    5   45       1
    51    5   46       1
    52    6   47       1
    53    8   48       1
    54    9   49       1
    55   10   50       1
    56   11   51       1
    57   12   52       1
    58   14   53       1
    59   18   54       1
    60   18   55       1
    61   20   56       1
    62   43   69       1
    63   28   57       1
    64   28   58       1
    65   29   59       1
    66   31   60       1
    67   32   61       1
    68   33   62       1
    69   34   63       1
    70   35   64       1
    71   37   65       1
    72   41   66       1
    73   41   67       1
    74   42   68       1
@<TRIPOS>SUBSTRUCTURE
     1 NAD2262     1 GROUP             4 B     NAD     0 **** NAD B2262
