@<TRIPOS>MOLECULE
1v11_TDP_1_ligand
   43    44     1     0     0
SMALL
NO_CHARGES


@<TRIPOS>ATOM
     1 N1'         77.0940     0.6000    11.1890 N.ar         1 TDP601   0.0000
     2 C2'         77.3550     1.7860    11.7580 C.ar         1 TDP601   0.0000
     3 C2A         77.4600     1.9740    13.2600 C.3          1 TDP601   0.0000
     4 N3'         77.4460     2.8960    10.9710 N.ar         1 TDP601   0.0000
     5 C4'         77.3340     2.8570     9.6150 C.ar         1 TDP601   0.0000
     6 N4'         77.5390     4.0350     8.9390 N.pl3        1 TDP601   0.0000
     7 C5'         77.1030     1.5880     8.9950 C.ar         1 TDP601   0.0000
     8 C6'         76.9460     0.4970     9.8490 C.ar         1 TDP601   0.0000
     9 C35         76.9640     1.4180     7.4700 C.3          1 TDP601   0.0000
    10 N3          75.6730     1.9780     7.0130 N.pl3        1 TDP601   0.0000
    11 C2          75.7960     3.2460     6.3450 C.3          1 TDP601   0.0000
    12 S1          74.0630     3.6270     5.9090 S.3          1 TDP601   0.0000
    13 C5          73.3750     2.1240     6.5320 C.2          1 TDP601   0.0000
    14 C4          74.4510     1.3760     7.0430 C.2          1 TDP601   0.0000
    15 C4A         74.2630     0.0230     7.6330 C.3          1 TDP601   0.0000
    16 C5A         71.9080     1.8660     6.4200 C.3          1 TDP601   0.0000
    17 C5B         71.1190     2.8860     7.2480 C.3          1 TDP601   0.0000
    18 O5G         69.7730     2.6770     7.1320 O.3          1 TDP601   0.0000
    19 P1          68.7020     3.6990     7.6490 P.3          1 TDP601   0.0000
    20 O11         68.7790     5.0250     6.7250 O.3          1 TDP601   0.0000
    21 O12         69.1020     4.1640     8.9760 O.co2        1 TDP601   0.0000
    22 O13         67.3230     3.0360     7.5420 O.co2        1 TDP601  -1.0000
    23 P2          68.5080     5.1730     5.1260 P.3          1 TDP601   0.0000
    24 O21         69.8360     4.8430     4.4200 O.co2        1 TDP601   0.0000
    25 O22         67.4630     4.1030     4.7390 O.co2        1 TDP601  -1.0000
    26 O23         68.0890     6.5980     4.8690 O.co2        1 TDP601  -1.0000
    27 H2A1        77.6594     2.9327    13.4628 H            1 TDP601   0.0000
    28 H2A2        76.5948     1.7154    13.6896 H            1 TDP601   0.0000
    29 H2A3        78.1950     1.3978    13.6175 H            1 TDP601   0.0000
    30 H4'1        77.4679     4.0581     7.9418 H            1 TDP601   0.0000
    31 H4'2        77.7593     4.8695     9.4441 H            1 TDP601   0.0000
    32 H6'         76.7157    -0.3934     9.4564 H            1 TDP601   0.0000
    33 H7          77.0027     0.4455     7.2405 H            1 TDP601   0.0000
    34 H8          77.7132     1.8982     7.0138 H            1 TDP601   0.0000
    35 H9          76.3668     3.1706     5.5274 H            1 TDP601   0.0000
    36 H10         76.1771     3.9410     6.9547 H            1 TDP601   0.0000
    37 H4A1        73.3015    -0.2420     7.5597 H            1 TDP601   0.0000
    38 H4A2        74.8293    -0.6373     7.1398 H            1 TDP601   0.0000
    39 H4A3        74.5318     0.0390     8.5961 H            1 TDP601   0.0000
    40 H5A1        71.7092     0.9453     6.7557 H            1 TDP601   0.0000
    41 H5A2        71.6335     1.9376     5.4611 H            1 TDP601   0.0000
    42 H5B1        71.3357     3.8071     6.9246 H            1 TDP601   0.0000
    43 H5B2        71.3814     2.7998     8.2091 H            1 TDP601   0.0000
@<TRIPOS>BOND
     1    1    2      ar
     2    1    8      ar
     3    2    3       1
     4    2    4      ar
     5    4    5      ar
     6    5    6       1
     7    5    7      ar
     8    7    8      ar
     9    7    9       1
    10    9   10       1
    11   10   11       1
    12   10   14       1
    13   11   12       1
    14   12   13       1
    15   13   14       2
    16   13   16       1
    17   14   15       1
    18   16   17       1
    19   17   18       1
    20   18   19       1
    21   19   20       1
    22   19   21      ar
    23   19   22      ar
    24   20   23       1
    25   23   24      ar
    26   23   25      ar
    27   23   26      ar
    28    3   27       1
    29    3   28       1
    30    3   29       1
    31    6   30       1
    32    6   31       1
    33    8   32       1
    34    9   33       1
    35    9   34       1
    36   11   35       1
    37   11   36       1
    38   15   37       1
    39   15   38       1
    40   15   39       1
    41   16   40       1
    42   16   41       1
    43   17   42       1
    44   17   43       1
@<TRIPOS>SUBSTRUCTURE
     1 TDP601      1 GROUP             4 A     TDP     0 **** TDP A 601
