@<TRIPOS>MOLECULE
4s27_AIR_1_ligand
   32    33     1     0     0
SMALL
NO_CHARGES


@<TRIPOS>ATOM
     1 N1          24.8140    33.3960    25.5220 N.pl3        1 AIR702   0.0000
     2 C2          26.1600    33.2370    25.6040 C.2          1 AIR702   0.0000
     3 N3          26.6350    34.3510    26.1900 N.2          1 AIR702   1.0000
     4 C4          25.6470    35.1960    26.4750 C.2          1 AIR702   0.0000
     5 C5          24.5270    34.5670    26.0430 C.2          1 AIR702   0.0000
     6 N6          23.2640    35.0690    26.1430 N.pl3        1 AIR702   0.0000
     7 C1'         23.8120    32.4690    24.9760 C.3          1 AIR702   0.0000
     8 C2'         23.4180    32.8010    23.5340 C.3          1 AIR702   0.0000
     9 C3'         22.9610    31.4330    23.0860 C.3          1 AIR702   0.0000
    10 C4'         24.0890    30.6330    23.6500 C.3          1 AIR702   0.0000
    11 O4'         24.3760    31.1810    24.9110 O.3          1 AIR702   0.0000
    12 O2'         22.4490    33.8240    23.4900 O.3          1 AIR702   0.0000
    13 O3'         21.8360    31.0150    23.8260 O.3          1 AIR702   0.0000
    14 C5'         25.3060    30.5730    22.7430 C.3          1 AIR702   0.0000
    15 O5'         26.0630    29.6330    23.2990 O.3          1 AIR702   0.0000
    16 P           27.5550    29.3210    22.8110 P.3          1 AIR702   0.0000
    17 O6          28.0480    28.3540    23.8750 O.co2        1 AIR702   0.0000
    18 O7          28.2960    30.6010    22.8570 O.co2        1 AIR702  -1.0000
    19 O8          27.5090    28.7130    21.4330 O.co2        1 AIR702  -1.0000
    20 H1          26.6916    32.4498    25.2915 H            1 AIR702   0.0000
    21 H2          25.7157    36.0937    26.9103 H            1 AIR702   0.0000
    22 H3          23.1148    35.9695    26.5514 H            1 AIR702   0.0000
    23 H4          22.4865    34.5368    25.8080 H            1 AIR702   0.0000
    24 H1'         23.0001    32.4588    25.5597 H            1 AIR702   0.0000
    25 H2'         24.2272    33.0763    23.0150 H            1 AIR702   0.0000
    26 H3'         22.8534    31.3436    22.0958 H            1 AIR702   0.0000
    27 H4'         23.7630    29.6979    23.7886 H            1 AIR702   0.0000
    28 H9          21.6231    33.4818    23.0418 H            1 AIR702   0.0000
    29 H10         21.0021    31.3149    23.3627 H            1 AIR702   0.0000
    30 H5'1        25.7827    31.4519    22.7263 H            1 AIR702   0.0000
    31 H5'2        25.0454    30.3174    21.8120 H            1 AIR702   0.0000
    32 H13         27.6009    34.5213    26.3852 H            1 AIR702   0.0000
@<TRIPOS>BOND
     1    1    2       1
     2    1    5       1
     3    1    7       1
     4    2    3       2
     5    3    4       1
     6    4    5       2
     7    5    6       1
     8    7    8       1
     9    7   11       1
    10    8    9       1
    11    8   12       1
    12    9   10       1
    13    9   13       1
    14   10   11       1
    15   10   14       1
    16   14   15       1
    17   15   16       1
    18   16   17      ar
    19   16   18      ar
    20   16   19      ar
    21    2   20       1
    22    4   21       1
    23    6   22       1
    24    6   23       1
    25    7   24       1
    26    8   25       1
    27    9   26       1
    28   10   27       1
    29   12   28       1
    30   13   29       1
    31   14   30       1
    32   14   31       1
    33    3   32       1
@<TRIPOS>SUBSTRUCTURE
     1 AIR702      1 GROUP             4 A     AIR     0 **** AIR A 702
