@<TRIPOS>MOLECULE
4iok_ADP_1_ligand
   39    41     1     0     0
SMALL
NO_CHARGES


@<TRIPOS>ATOM
     1 PB          23.2140    28.8790    78.5480 P.3          1 ADP602   0.0000
     2 O1B         22.6960    29.8510    77.5280 O.co2        1 ADP602   0.0000
     3 O2B         24.6790    28.4910    78.3750 O.co2        1 ADP602  -1.0000
     4 O3B         22.3020    27.7050    78.7380 O.co2        1 ADP602  -1.0000
     5 PA          22.0270    30.6400    80.4730 P.3          1 ADP602   0.0000
     6 O1A         22.4650    32.0070    80.0420 O.co2        1 ADP602   0.0000
     7 O2A         20.6160    30.1900    80.1600 O.co2        1 ADP602  -1.0000
     8 O3A         23.1420    29.5600    80.0090 O.3          1 ADP602   0.0000
     9 O5'         22.1920    30.4930    82.0680 O.3          1 ADP602   0.0000
    10 C5'         21.8780    29.2710    82.7140 C.3          1 ADP602   0.0000
    11 C4'         20.8740    29.4650    83.8530 C.3          1 ADP602   0.0000
    12 O4'         21.4910    29.8320    85.1050 O.3          1 ADP602   0.0000
    13 C3'         19.8250    30.5410    83.6150 C.3          1 ADP602   0.0000
    14 O3'         18.7510    30.2170    84.5010 O.3          1 ADP602   0.0000
    15 C2'         20.4610    31.7970    84.1830 C.3          1 ADP602   0.0000
    16 O2'         19.5140    32.7880    84.6160 O.3          1 ADP602   0.0000
    17 C1'         21.2490    31.2400    85.3640 C.3          1 ADP602   0.0000
    18 N9          22.5410    31.9460    85.4530 N.pl3        1 ADP602   0.0000
    19 C8          23.3410    32.3300    84.4270 C.2          1 ADP602   0.0000
    20 N7          24.4710    32.9210    84.8640 N.2          1 ADP602   0.0000
    21 C5          24.3920    32.8940    86.2170 C.ar         1 ADP602   0.0000
    22 C6          25.2420    33.3460    87.3430 C.ar         1 ADP602   0.0000
    23 N6          26.4250    33.9630    87.1420 N.pl3        1 ADP602   0.0000
    24 N1          24.7790    33.1270    88.5780 N.ar         1 ADP602   0.0000
    25 C2          23.6000    32.5130    88.8370 C.ar         1 ADP602   0.0000
    26 N3          22.7770    32.0730    87.8800 N.ar         1 ADP602   0.0000
    27 C4          23.1240    32.2480    86.5880 C.ar         1 ADP602   0.0000
    28 H5'1        22.7183    28.8784    83.0879 H            1 ADP602   0.0000
    29 H5'2        21.4864    28.6422    82.0423 H            1 ADP602   0.0000
    30 H4'         20.3962    28.5973    83.9904 H            1 ADP602   0.0000
    31 H3'         19.5463    30.6276    82.6585 H            1 ADP602   0.0000
    32 H5          18.6003    30.9765    85.1339 H            1 ADP602   0.0000
    33 H2'         21.0875    32.1946    83.5126 H            1 ADP602   0.0000
    34 H7          18.9476    33.0688    83.8412 H            1 ADP602   0.0000
    35 H1'         20.7314    31.3537    86.2121 H            1 ADP602   0.0000
    36 H9          23.1190    32.1912    83.4619 H            1 ADP602   0.0000
    37 H10         26.9753    34.2560    87.9239 H            1 ADP602   0.0000
    38 H11         26.7514    34.1273    86.2112 H            1 ADP602   0.0000
    39 H12         23.3318    32.3823    89.7915 H            1 ADP602   0.0000
@<TRIPOS>BOND
     1    1    2      ar
     2    1    3      ar
     3    1    4      ar
     4    1    8       1
     5    5    6      ar
     6    5    7      ar
     7    5    8       1
     8    5    9       1
     9    9   10       1
    10   10   11       1
    11   11   12       1
    12   11   13       1
    13   12   17       1
    14   13   14       1
    15   13   15       1
    16   15   16       1
    17   15   17       1
    18   17   18       1
    19   18   19       1
    20   18   27       1
    21   19   20       2
    22   20   21       1
    23   21   22      ar
    24   21   27      ar
    25   22   23       1
    26   22   24      ar
    27   24   25      ar
    28   25   26      ar
    29   26   27      ar
    30   25   39       1
    31   23   38       1
    32   23   37       1
    33   10   28       1
    34   10   29       1
    35   11   30       1
    36   13   31       1
    37   14   32       1
    38   15   33       1
    39   16   34       1
    40   17   35       1
    41   19   36       1
@<TRIPOS>SUBSTRUCTURE
     1 ADP602      1 GROUP             4 A     ADP     0 **** ADP A 602
