@<TRIPOS>MOLECULE
1xvt_COA_1_ligand
   80    82     1     0     0
SMALL
NO_CHARGES


@<TRIPOS>ATOM
     1 N1A         44.0240    47.7930    27.0660 N.ar         1 COA501   0.0000
     2 C2A         45.0170    47.5050    27.9770 C.ar         1 COA501   0.0000
     3 N3A         46.3430    47.6310    27.6250 N.ar         1 COA501   0.0000
     4 C4A         46.6850    48.0380    26.3770 C.ar         1 COA501   0.0000
     5 C5A         45.7000    48.3350    25.4370 C.ar         1 COA501   0.0000
     6 C6A         44.3540    48.2100    25.7910 C.ar         1 COA501   0.0000
     7 N6A         43.3760    48.5250    24.9480 N.pl3        1 COA501   0.0000
     8 N7A         46.3300    48.7080    24.3010 N.2          1 COA501   0.0000
     9 C8A         47.6720    48.6550    24.4960 C.2          1 COA501   0.0000
    10 N9A         47.9110    48.2340    25.7840 N.pl3        1 COA501   0.0000
    11 C1B         49.2100    48.0510    26.4650 C.3          1 COA501   0.0000
    12 C2B         50.3600    47.6490    25.5480 C.3          1 COA501   0.0000
    13 O2B         50.4380    46.2610    25.2990 O.3          1 COA501   0.0000
    14 C3B         51.5700    48.1810    26.2920 C.3          1 COA501   0.0000
    15 O3B         52.0420    47.2150    27.2110 O.3          1 COA501   0.0000
    16 P3B         53.2720    46.2100    26.8820 P.3          1 COA501   0.0000
    17 O7A         54.5650    46.9660    27.0930 O.co2        1 COA501   0.0000
    18 O8A         53.2140    45.0020    27.8010 O.co2        1 COA501  -1.0000
    19 O9A         53.2100    45.7080    25.4570 O.co2        1 COA501  -1.0000
    20 C4B         51.0260    49.3890    27.0460 C.3          1 COA501   0.0000
    21 O4B         49.6140    49.2740    27.0480 O.3          1 COA501   0.0000
    22 C5B         51.4200    50.7310    26.4220 C.3          1 COA501   0.0000
    23 O5B         51.5050    50.6030    25.0150 O.3          1 COA501   0.0000
    24 P1A         51.2220    51.7990    23.9670 P.3          1 COA501   0.0000
    25 O1A         50.8100    51.1930    22.6450 O.co2        1 COA501   0.0000
    26 O2A         50.1600    52.7660    24.4450 O.co2        1 COA501  -1.0000
    27 O3A         52.6190    52.5890    23.8690 O.3          1 COA501   0.0000
    28 P2A         54.0420    51.9060    23.5810 P.3          1 COA501   0.0000
    29 O4A         55.1030    52.9680    23.6950 O.co2        1 COA501   0.0000
    30 O5A         54.3440    50.7470    24.4860 O.co2        1 COA501  -1.0000
    31 O6A         53.9480    51.4210    22.0410 O.3          1 COA501   0.0000
    32 CBP         54.3210    51.8210    19.6910 C.3          1 COA501   0.0000
    33 CCP         53.6850    52.3210    20.9820 C.3          1 COA501   0.0000
    34 CDP         53.6360    52.5400    18.5300 C.3          1 COA501   0.0000
    35 CEP         55.7940    52.2390    19.7280 C.3          1 COA501   0.0000
    36 CAP         54.1500    50.2920    19.5880 C.3          1 COA501   0.0000
    37 OAP         52.7980    49.9150    19.7260 O.3          1 COA501   0.0000
    38 C9P         54.7090    49.6690    18.3430 C.2          1 COA501   0.0000
    39 O9P         56.0970    49.5900    18.1710 O.2          1 COA501   0.0000
    40 N8P         53.8400    49.2020    17.4410 N.am         1 COA501   0.0000
    41 C7P         54.2530    48.5390    16.2170 C.3          1 COA501   0.0000
    42 C6P         54.6430    49.4990    15.0920 C.3          1 COA501   0.0000
    43 C5P         53.5910    50.5750    14.9330 C.2          1 COA501   0.0000
    44 O5P         52.3960    50.2740    14.8430 O.2          1 COA501   0.0000
    45 N4P         54.0230    51.8300    14.9170 N.am         1 COA501   0.0000
    46 C3P         53.1200    52.9610    14.8020 C.3          1 COA501   0.0000
    47 C2P         53.1190    53.4980    13.3760 C.3          1 COA501   0.0000
    48 S1P         52.5890    55.2240    13.3450 S.3          1 COA501   0.0000
    49 H2A         44.7738    47.2029    28.8987 H            1 COA501   0.0000
    50 H6A1        43.5939    48.8290    24.0206 H            1 COA501   0.0000
    51 H6A2        42.4223    48.4580    25.2411 H            1 COA501   0.0000
    52 H8A         48.3701    48.8836    23.8174 H            1 COA501   0.0000
    53 H1B         49.1088    47.3633    27.1839 H            1 COA501   0.0000
    54 H2B         50.2706    48.1338    24.6780 H            1 COA501   0.0000
    55 H7          51.3914    46.0036    25.1418 H            1 COA501   0.0000
    56 H3B         52.2916    48.4518    25.6549 H            1 COA501   0.0000
    57 H4B         51.3562    49.3594    27.9894 H            1 COA501   0.0000
    58 H5B1        52.3078    51.0163    26.7830 H            1 COA501   0.0000
    59 H5B2        50.7305    51.4181    26.6512 H            1 COA501   0.0000
    60 HCP1        54.0635    53.2181    21.2101 H            1 COA501   0.0000
    61 HCP2        52.6964    52.3992    20.8537 H            1 COA501   0.0000
    62 HDP1        54.0335    52.2315    17.6658 H            1 COA501   0.0000
    63 HDP2        52.6578    52.3324    18.5399 H            1 COA501   0.0000
    64 HDP3        53.7683    53.5267    18.6244 H            1 COA501   0.0000
    65 HEP1        56.2498    51.9281    18.8940 H            1 COA501   0.0000
    66 HEP2        55.8564    53.2351    19.7905 H            1 COA501   0.0000
    67 HEP3        56.2376    51.8267    20.5237 H            1 COA501   0.0000
    68 HAP         54.6436    49.8917    20.3601 H            1 COA501   0.0000
    69 H21         52.4583    50.2129    20.6181 H            1 COA501   0.0000
    70 H8P         52.8620    49.3142    17.6170 H            1 COA501   0.0000
    71 H7P1        53.4958    47.9698    15.8966 H            1 COA501   0.0000
    72 H7P2        55.0414    47.9595    16.4236 H            1 COA501   0.0000
    73 H6P1        54.7250    48.9885    14.2360 H            1 COA501   0.0000
    74 H6P2        55.5206    49.9253    15.3113 H            1 COA501   0.0000
    75 H4P         55.0055    52.0026    14.9866 H            1 COA501   0.0000
    76 H3P1        53.4165    53.6840    15.4260 H            1 COA501   0.0000
    77 H3P2        52.1947    52.6697    15.0449 H            1 COA501   0.0000
    78 H2P1        52.4923    52.9520    12.8200 H            1 COA501   0.0000
    79 H2P2        54.0430    53.4314    12.9994 H            1 COA501   0.0000
    80 H1P         52.8489    55.6680    14.2025 H            1 COA501   0.0000
@<TRIPOS>BOND
     1    1    2      ar
     2    1    6      ar
     3    2    3      ar
     4    3    4      ar
     5    4    5      ar
     6    4   10       1
     7    5    6      ar
     8    5    8       1
     9    6    7       1
    10    8    9       2
    11    9   10       1
    12   10   11       1
    13   11   12       1
    14   11   21       1
    15   12   13       1
    16   12   14       1
    17   14   15       1
    18   14   20       1
    19   15   16       1
    20   16   17      ar
    21   16   18      ar
    22   16   19      ar
    23   20   21       1
    24   20   22       1
    25   22   23       1
    26   23   24       1
    27   24   25      ar
    28   24   26      ar
    29   24   27       1
    30   27   28       1
    31   28   29      ar
    32   28   30      ar
    33   28   31       1
    34   31   33       1
    35   32   33       1
    36   32   34       1
    37   32   35       1
    38   32   36       1
    39   36   37       1
    40   36   38       1
    41   38   39       2
    42   38   40      am
    43   40   41       1
    44   41   42       1
    45   42   43       1
    46   43   44       2
    47   43   45      am
    48   45   46       1
    49   46   47       1
    50   47   48       1
    51    2   49       1
    52    7   50       1
    53    7   51       1
    54    9   52       1
    55   11   53       1
    56   12   54       1
    57   13   55       1
    58   14   56       1
    59   48   80       1
    60   47   79       1
    61   20   57       1
    62   22   58       1
    63   22   59       1
    64   47   78       1
    65   46   77       1
    66   33   60       1
    67   33   61       1
    68   34   62       1
    69   34   63       1
    70   34   64       1
    71   35   65       1
    72   35   66       1
    73   35   67       1
    74   36   68       1
    75   37   69       1
    76   40   70       1
    77   41   71       1
    78   41   72       1
    79   42   73       1
    80   42   74       1
    81   45   75       1
    82   46   76       1
@<TRIPOS>SUBSTRUCTURE
     1 COA501      1 GROUP             4 A     COA     0 **** COA A 501
