@<TRIPOS>MOLECULE
1khe_GCP_1_ligand
   46    48     1     0     0
SMALL
NO_CHARGES


@<TRIPOS>ATOM
     1 PG          41.3050    29.8900    34.3420 P.3          1 GCP703   0.0000
     2 O1G         41.0190    28.9250    33.2260 O.co2        1 GCP703   0.0000
     3 O2G         42.6060    29.3690    34.7940 O.co2        1 GCP703  -1.0000
     4 O3G         40.3370    29.4540    35.4310 O.co2        1 GCP703  -1.0000
     5 C3B         41.3050    31.6410    34.1980 C.3          1 GCP703   0.0000
     6 PB          39.8610    32.2480    33.5070 P.3          1 GCP703   0.0000
     7 O1B         39.7580    32.3940    32.0420 O.co2        1 GCP703   0.0000
     8 O2B         38.5930    31.8000    34.1080 O.co2        1 GCP703  -1.0000
     9 O3A         40.0770    33.8160    33.7840 O.3          1 GCP703   0.0000
    10 PA          40.4040    34.5140    35.2180 P.3          1 GCP703   0.0000
    11 O1A         39.2000    34.2130    36.0280 O.co2        1 GCP703   0.0000
    12 O2A         41.7780    34.1340    35.5330 O.co2        1 GCP703  -1.0000
    13 O5'         40.3380    36.0850    34.9600 O.3          1 GCP703   0.0000
    14 C5'         40.2380    37.1090    35.9250 C.3          1 GCP703   0.0000
    15 C4'         41.0330    38.2430    35.3590 C.3          1 GCP703   0.0000
    16 O4'         40.5410    38.7720    34.0830 O.3          1 GCP703   0.0000
    17 C3'         40.9110    39.3780    36.3750 C.3          1 GCP703   0.0000
    18 O3'         42.0530    40.2880    36.1390 O.3          1 GCP703   0.0000
    19 C2'         39.6200    40.0670    35.8890 C.3          1 GCP703   0.0000
    20 O2'         39.7050    41.4930    36.1280 O.3          1 GCP703   0.0000
    21 C1'         39.9300    40.0450    34.4270 C.3          1 GCP703   0.0000
    22 N9          38.7630    40.3010    33.6430 N.pl3        1 GCP703   0.0000
    23 C8          37.7470    39.4230    33.2980 C.2          1 GCP703   0.0000
    24 N7          36.8910    39.9560    32.4510 N.2          1 GCP703   0.0000
    25 C5          37.3470    41.2700    32.2590 C.2          1 GCP703   0.0000
    26 C6          36.8250    42.3370    31.5310 C.2          1 GCP703   0.0000
    27 O6          35.8110    42.3400    30.8140 O.2          1 GCP703   0.0000
    28 N1          37.6340    43.5100    31.6090 N.pl3        1 GCP703   0.0000
    29 C2          38.7330    43.5740    32.3740 C.2          1 GCP703   0.0000
    30 N2          39.4190    44.7180    32.3740 N.pl3        1 GCP703   0.0000
    31 N3          39.1950    42.4940    33.0510 N.2          1 GCP703   0.0000
    32 C4          38.5160    41.4160    32.9180 C.2          1 GCP703   0.0000
    33 H3B1        42.0750    31.9144    33.6215 H            1 GCP703   0.0000
    34 H3B2        41.4142    32.0368    35.1098 H            1 GCP703   0.0000
    35 H5'1        40.6229    36.8096    36.7981 H            1 GCP703   0.0000
    36 H5'2        39.2838    37.3781    36.0561 H            1 GCP703   0.0000
    37 H4'         41.9912    37.9723    35.2667 H            1 GCP703   0.0000
    38 H3'         40.8533    39.0558    37.3199 H            1 GCP703   0.0000
    39 H7          41.7111    41.1981    35.9050 H            1 GCP703   0.0000
    40 H2'         38.7628    39.6292    36.1602 H            1 GCP703   0.0000
    41 H9          39.6284    41.9818    35.2590 H            1 GCP703   0.0000
    42 H1'         40.5943    40.7686    34.2398 H            1 GCP703   0.0000
    43 H11         37.6726    38.4908    33.6521 H            1 GCP703   0.0000
    44 H12         37.3717    44.3130    31.0738 H            1 GCP703   0.0000
    45 H13         40.2446    44.8060    32.9314 H            1 GCP703   0.0000
    46 H14         39.1077    45.4877    31.8166 H            1 GCP703   0.0000
@<TRIPOS>BOND
     1    1    2      ar
     2    1    3      ar
     3    1    4      ar
     4    1    5       1
     5    5    6       1
     6    6    7      ar
     7    6    8      ar
     8    6    9       1
     9    9   10       1
    10   10   11      ar
    11   10   12      ar
    12   10   13       1
    13   13   14       1
    14   14   15       1
    15   15   16       1
    16   15   17       1
    17   16   21       1
    18   17   18       1
    19   17   19       1
    20   19   20       1
    21   19   21       1
    22   21   22       1
    23   22   23       1
    24   22   32       1
    25   23   24       2
    26   24   25       1
    27   25   26       1
    28   25   32       2
    29   26   27       2
    30   26   28       1
    31   28   29       1
    32   29   30       1
    33   29   31       2
    34   31   32       1
    35   30   46       1
    36   30   45       1
    37    5   33       1
    38    5   34       1
    39   28   44       1
    40   23   43       1
    41   14   35       1
    42   14   36       1
    43   15   37       1
    44   17   38       1
    45   18   39       1
    46   19   40       1
    47   20   41       1
    48   21   42       1
@<TRIPOS>SUBSTRUCTURE
     1 GCP703      1 GROUP             4 A     GCP     0 **** GCP A 703
