@<TRIPOS>MOLECULE
./coach420/3gd9/ligand.pdb
 45 48 0 0 0
SMALL
GASTEIGER

@<TRIPOS>ATOM
      1  C1        14.1000   -2.7920    9.9910 C.3     1  GLC1        0.3022
      2  C2        13.8150   -2.0690   11.3470 C.3     1  GLC1        0.2403
      3  C3        13.3940   -2.9520   12.5090 C.3     1  GLC1        0.1859
      4  C4        12.7630   -4.2380   12.0240 C.3     1  GLC1        0.2113
      5  C5        13.6930   -5.0030   11.1030 C.3     1  GLC1        0.1835
      6  C6        13.0210   -6.2950   10.6430 C.3     1  GLC1        0.2142
      7  O1        15.2770   -2.2690    9.3580 O.3     1  GLC1       -0.1869
      8  O2        14.8910   -1.2080   11.7960 O.3     1  GLC1       -0.2149
      9  O3        12.3880   -2.2190   13.1860 O.3     1  GLC1       -0.3255
     10  O4        12.4890   -5.0530   13.1630 O.3     1  GLC1       -0.2177
     11  O5        14.1270   -4.2460    9.9540 O.3     1  GLC1       -0.3236
     12  O6        11.9900   -5.9900    9.6960 O.3     1  GLC1       -0.2176
     13  C2        11.6870   -0.8110   14.9500 C.3     2  BGC2        0.2374
     14  C3        11.3820   -0.7470   16.4450 C.3     2  BGC2        0.1858
     15  C4        11.2790   -2.1500   17.0440 C.3     2  BGC2        0.2113
     16  C5        12.5000   -2.9490   16.6470 C.3     2  BGC2        0.1834
     17  C6        12.5350   -4.2970   17.3050 C.3     2  BGC2        0.2142
     18  C1        12.6730   -1.9220   14.5310 C.3     2  BGC2        0.2694
     19  O2        12.1390    0.4820   14.5070 O.3     2  BGC2       -0.2150
     20  O3        10.0850   -0.2240   16.5200 O.3     2  BGC2       -0.3255
     21  O4        11.1320   -2.0580   18.4680 O.3     2  BGC2       -0.2177
     22  O5        12.4380   -3.1400   15.2400 O.3     2  BGC2       -0.3256
     23  O6        13.6080   -4.2290   18.2450 O.3     2  BGC2       -0.2176
     24  C2         8.7680    1.8590   16.6720 C.3     3  BGC3        0.2374
     25  C3         8.7010    3.2780   17.2300 C.3     3  BGC3        0.1858
     26  C4         9.2070    3.2500   18.6860 C.3     3  BGC3        0.2113
     27  C5        10.6230    2.6790   18.8260 C.3     3  BGC3        0.1834
     28  C6        11.1130    2.7530   20.2760 C.3     3  BGC3        0.2142
     29  C1         9.9020    1.0230   17.1980 C.3     3  BGC3        0.2694
     30  O2         8.7940    1.8580   15.2320 O.3     3  BGC3       -0.2150
     31  O3         7.3060    3.5450   17.3230 O.3     3  BGC3       -0.3255
     32  O4         9.1630    4.5550   19.2510 O.3     3  BGC3       -0.2177
     33  O5        10.6550    1.3080   18.4230 O.3     3  BGC3       -0.3256
     34  O6        10.3550    1.8750   21.1290 O.3     3  BGC3       -0.2176
     35  C2         5.5110    3.8480   15.6020 C.3     4  BGC4        0.2406
     36  C3         5.1870    4.6820   14.3690 C.3     4  BGC4        0.2198
     37  C4         5.3020    6.1900   14.6470 C.3     4  BGC4        0.2144
     38  C5         6.5820    6.5940   15.4170 C.3     4  BGC4        0.1835
     39  C6         6.1600    7.2710   16.7180 C.3     4  BGC4        0.2142
     40  C1         6.6250    4.4820   16.4620 C.3     4  BGC4        0.2695
     41  O2         5.7890    2.4920   15.2200 O.3     4  BGC4       -0.2149
     42  O3         3.8270    4.3950   14.0100 O.3     4  BGC4       -0.2174
     43  O4         5.1780    6.9280   13.4100 O.3     4  BGC4       -0.2176
     44  O5         7.3990    5.4570   15.7670 O.3     4  BGC4       -0.3256
     45  O6         5.9500    8.6400   16.4900 O.3     4  BGC4       -0.2176
@<TRIPOS>BOND
     1     1     7    1
     2     1    11    1
     3     1     2    1
     4     2     8    1
     5     2     3    1
     6     3     4    1
     7     3     9    1
     8     4     5    1
     9     4    10    1
    10     5    11    1
    11     5     6    1
    12     6    12    1
    13     9    18    1
    14    13    19    1
    15    13    18    1
    16    13    14    1
    17    14    20    1
    18    14    15    1
    19    15    16    1
    20    15    21    1
    21    16    22    1
    22    16    17    1
    23    17    23    1
    24    18    22    1
    25    20    29    1
    26    24    30    1
    27    24    29    1
    28    24    25    1
    29    25    31    1
    30    25    26    1
    31    26    27    1
    32    26    32    1
    33    27    33    1
    34    27    28    1
    35    28    34    1
    36    29    33    1
    37    31    40    1
    38    35    36    1
    39    35    41    1
    40    35    40    1
    41    36    42    1
    42    36    37    1
    43    37    43    1
    44    37    38    1
    45    38    44    1
    46    38    39    1
    47    39    45    1
    48    40    44    1
