@<TRIPOS>MOLECULE
4jal_SAH_1_ligand
   46    48     1     0     0
SMALL
NO_CHARGES


@<TRIPOS>ATOM
     1 N            2.1330    13.6740    16.4560 N.4          1 SAH201   1.0000
     2 CA           1.8710    12.5410    17.3370 C.3          1 SAH201   0.0000
     3 CB           3.0730    12.3290    18.2290 C.3          1 SAH201   0.0000
     4 CG           3.7110    11.0060    17.8650 C.3          1 SAH201   0.0000
     5 SD           5.4810    11.0610    18.1350 S.3          1 SAH201   0.0000
     6 C            0.6270    12.7290    18.1920 C.2          1 SAH201   0.0000
     7 O            0.0510    11.7590    18.6840 O.co2        1 SAH201   0.0000
     8 OXT          0.1750    13.8530    18.4130 O.co2        1 SAH201  -1.0000
     9 C5'          5.1730    10.0030    19.5670 C.3          1 SAH201   0.0000
    10 C4'          5.7480     8.6020    19.4340 C.3          1 SAH201   0.0000
    11 O4'          5.1320     7.8950    18.3740 O.3          1 SAH201   0.0000
    12 C3'          7.2360     8.6130    19.1060 C.3          1 SAH201   0.0000
    13 O3'          8.0040     8.7940    20.2610 O.3          1 SAH201   0.0000
    14 C2'          7.4290     7.2440    18.5050 C.3          1 SAH201   0.0000
    15 O2'          7.6100     6.2780    19.5240 O.3          1 SAH201   0.0000
    16 C1'          6.0820     6.9880    17.8450 C.3          1 SAH201   0.0000
    17 N9           6.2010     7.2030    16.3860 N.pl3        1 SAH201   0.0000
    18 C8           5.6260     8.1720    15.6150 C.2          1 SAH201   0.0000
    19 N7           5.9980     7.9790    14.3300 N.2          1 SAH201   0.0000
    20 C5           6.8020     6.8940    14.2740 C.ar         1 SAH201   0.0000
    21 C6           7.4620     6.2520    13.2300 C.ar         1 SAH201   0.0000
    22 N6           7.3630     6.6920    11.9710 N.pl3        1 SAH201   0.0000
    23 N1           8.2310     5.1450    13.5190 N.ar         1 SAH201   0.0000
    24 C2           8.3570     4.6770    14.8090 C.ar         1 SAH201   0.0000
    25 N3           7.6900     5.3190    15.8340 N.ar         1 SAH201   0.0000
    26 C4           6.9330     6.4010    15.5660 C.ar         1 SAH201   0.0000
    27 H1           1.3433    13.8231    15.8610 H            1 SAH201   0.0000
    28 H2           2.2955    14.4933    17.0059 H            1 SAH201   0.0000
    29 HA           1.7472    11.7242    16.7736 H            1 SAH201   0.0000
    30 HB1          2.7844    12.3126    19.1863 H            1 SAH201   0.0000
    31 HB2          3.7303    13.0700    18.0916 H            1 SAH201   0.0000
    32 HG1          3.5320    10.8094    16.9010 H            1 SAH201   0.0000
    33 HG2          3.3148    10.2836    18.4317 H            1 SAH201   0.0000
    34 H5'1         4.1842     9.9265    19.6949 H            1 SAH201   0.0000
    35 H5'2         5.5806    10.4354    20.3713 H            1 SAH201   0.0000
    36 H4'          5.6033     8.1044    20.2893 H            1 SAH201   0.0000
    37 H3'          7.4416     9.3236    18.4331 H            1 SAH201   0.0000
    38 H12          8.8517     9.2698    20.0265 H            1 SAH201   0.0000
    39 H2'          8.1773     7.2305    17.8418 H            1 SAH201   0.0000
    40 H14          8.5011     5.8382    19.4119 H            1 SAH201   0.0000
    41 H1'          5.7900     6.0488    18.0257 H            1 SAH201   0.0000
    42 H16          5.0290     8.9028    15.9459 H            1 SAH201   0.0000
    43 H17          7.8454     6.2161    11.2356 H            1 SAH201   0.0000
    44 H18          6.8066     7.4970    11.7650 H            1 SAH201   0.0000
    45 H19          8.9272     3.8784    15.0016 H            1 SAH201   0.0000
    46 H20          2.9399    13.4822    15.8973 H            1 SAH201   0.0000
@<TRIPOS>BOND
     1    1    2       1
     2    2    3       1
     3    2    6       1
     4    3    4       1
     5    4    5       1
     6    5    9       1
     7    6    7      ar
     8    6    8      ar
     9    9   10       1
    10   10   11       1
    11   10   12       1
    12   11   16       1
    13   12   13       1
    14   12   14       1
    15   14   15       1
    16   14   16       1
    17   16   17       1
    18   17   18       1
    19   17   26       1
    20   18   19       2
    21   19   20       1
    22   20   21      ar
    23   20   26      ar
    24   21   22       1
    25   21   23      ar
    26   23   24      ar
    27   24   25      ar
    28   25   26      ar
    29    1   27       1
    30    1   28       1
    31    2   29       1
    32    3   30       1
    33    3   31       1
    34    4   32       1
    35    4   33       1
    36    1   46       1
    37    9   34       1
    38    9   35       1
    39   10   36       1
    40   12   37       1
    41   13   38       1
    42   14   39       1
    43   15   40       1
    44   16   41       1
    45   18   42       1
    46   22   43       1
    47   22   44       1
    48   24   45       1
@<TRIPOS>SUBSTRUCTURE
     1 SAH201      1 GROUP             4 A     SAH     0 **** SAH A 201
