@<TRIPOS>MOLECULE
2f59_INI_1_ligand
   35    35     1     0     0
SMALL
NO_CHARGES


@<TRIPOS>ATOM
     1 N1          97.9390    60.0260   -89.8960 N.pl3        1 INI201   0.0000
     2 C2          97.3120    60.1660   -88.6750 C.2          1 INI201   0.0000
     3 O2          98.0230    60.0110   -87.6990 O.2          1 INI201   0.0000
     4 N3          95.9780    60.4610   -88.6840 N.pl3        1 INI201   0.0000
     5 C4          95.1930    60.6270   -89.8250 C.2          1 INI201   0.0000
     6 O4          93.9840    60.8950   -89.5860 O.2          1 INI201   0.0000
     7 C5          95.9130    60.4590   -91.2130 C.2          1 INI201   0.0000
     8 N5          95.1160    60.6220   -92.4180 N.2          1 INI201   1.0000
     9 O51         93.9660    60.8720   -92.3640 O.co2        1 INI201   0.0000
    10 O52         95.6490    60.4930   -93.4950 O.co2        1 INI201  -1.0000
    11 C6          97.3570    60.1480   -91.1680 C.2          1 INI201   0.0000
    12 N7          98.2500    59.9590   -92.2570 N.pl3        1 INI201   0.0000
    13 C8          98.4240    58.5440   -92.6800 C.3          1 INI201   0.0000
    14 C9          99.7690    57.8500   -92.2230 C.3          1 INI201   0.0000
    15 O9          99.6700    57.8490   -90.8140 O.3          1 INI201   0.0000
    16 C10        101.2240    58.5060   -92.5290 C.3          1 INI201   0.0000
    17 O10        101.3600    59.7570   -91.9560 O.3          1 INI201   0.0000
    18 C11        101.7540    58.6890   -94.1380 C.3          1 INI201   0.0000
    19 O11        100.6360    58.0740   -94.8500 O.3          1 INI201   0.0000
    20 C12        102.9560    57.9430   -94.8750 C.3          1 INI201   0.0000
    21 O12        103.4890    57.0370   -93.9520 O.3          1 INI201   0.0000
    22 H1          98.9160    59.8142   -89.8725 H            1 INI201   0.0000
    23 H2          95.5264    60.5668   -87.7981 H            1 INI201   0.0000
    24 H3          98.7241    60.7177   -92.7037 H            1 INI201   0.0000
    25 H4          98.3881    58.5157   -93.6790 H            1 INI201   0.0000
    26 H5          97.6629    58.0155   -92.3040 H            1 INI201   0.0000
    27 H6          99.7685    56.9036   -92.5461 H            1 INI201   0.0000
    28 H7          98.7076    57.7960   -90.5475 H            1 INI201   0.0000
    29 H8         101.8959    57.9179   -92.0787 H            1 INI201   0.0000
    30 H9         102.1268    59.7481   -91.3141 H            1 INI201   0.0000
    31 H10        101.7877    59.6630   -94.3620 H            1 INI201   0.0000
    32 H11        100.9667    57.6659   -95.7009 H            1 INI201   0.0000
    33 H12        103.6536    58.6034   -95.1527 H            1 INI201   0.0000
    34 H13        102.6181    57.4564   -95.6806 H            1 INI201   0.0000
    35 H14        104.2139    57.4833   -93.4273 H            1 INI201   0.0000
@<TRIPOS>BOND
     1    1    2       1
     2    1   11       1
     3    2    3       2
     4    2    4       1
     5    4    5       1
     6    5    6       2
     7    5    7       1
     8    7    8       1
     9    7   11       2
    10    8    9      ar
    11    8   10      ar
    12   11   12       1
    13   12   13       1
    14   13   14       1
    15   14   15       1
    16   14   16       1
    17   16   17       1
    18   16   18       1
    19   18   19       1
    20   18   20       1
    21   20   21       1
    22    1   22       1
    23    4   23       1
    24   12   24       1
    25   13   25       1
    26   13   26       1
    27   14   27       1
    28   15   28       1
    29   16   29       1
    30   17   30       1
    31   18   31       1
    32   19   32       1
    33   20   33       1
    34   20   34       1
    35   21   35       1
@<TRIPOS>SUBSTRUCTURE
     1 INI201      1 GROUP             4 A     INI     0 **** INI A 201
