@<TRIPOS>MOLECULE
2buj_STU_1_ligand
   62    69     1     0     0
SMALL
NO_CHARGES


@<TRIPOS>ATOM
     1 O4         -16.0560   -20.0030    -5.7780 O.3          1 STU1301   0.0000
     2 C25        -17.3770   -20.1510    -5.3060 C.3          1 STU1301   0.0000
     3 C24        -17.5570   -20.2000    -3.7730 C.3          1 STU1301   0.0000
     4 C23        -16.1580   -20.2830    -3.1200 C.3          1 STU1301   0.0000
     5 C22        -15.4720   -21.4270    -3.8810 C.3          1 STU1301   0.0000
     6 C21        -15.1740   -20.9900    -5.3190 C.3          1 STU1301   0.0000
     7 C26        -13.8280   -20.2740    -5.2890 C.3          1 STU1301   0.0000
     8 N2         -15.1140   -22.1510    -6.2200 N.pl3        1 STU1301   0.0000
     9 C18        -16.2500   -22.6380    -6.8550 C.ar         1 STU1301   0.0000
    10 C19        -17.5680   -22.1750    -6.8300 C.ar         1 STU1301   0.0000
    11 C6         -18.5610   -22.8380    -7.5800 C.ar         1 STU1301   0.0000
    12 C7         -18.2230   -23.9730    -8.3600 C.ar         1 STU1301   0.0000
    13 C10        -16.9030   -24.4180    -8.3720 C.ar         1 STU1301   0.0000
    14 C11        -15.9390   -23.7700    -7.6240 C.ar         1 STU1301   0.0000
    15 C12        -14.5420   -23.9990    -7.4310 C.ar         1 STU1301   0.0000
    16 C17        -14.0710   -22.9880    -6.5460 C.ar         1 STU1301   0.0000
    17 C16        -12.7250   -22.9900    -6.1870 C.ar         1 STU1301   0.0000
    18 C15        -11.9300   -23.9910    -6.7330 C.ar         1 STU1301   0.0000
    19 C14        -12.4120   -24.9710    -7.5940 C.ar         1 STU1301   0.0000
    20 C13        -13.7410   -25.0040    -7.9650 C.ar         1 STU1301   0.0000
    21 C9         -16.8240   -25.6310    -9.2680 C.3          1 STU1301   0.0000
    22 N1         -18.1850   -25.8330    -9.7540 N.am         1 STU1301   0.0000
    23 C8         -18.9870   -24.8810    -9.2290 C.2          1 STU1301   0.0000
    24 O5         -20.1710   -24.7970    -9.4670 O.2          1 STU1301   0.0000
    25 C5         -19.7910   -22.1060    -7.3150 C.ar         1 STU1301   0.0000
    26 C20        -19.4480   -21.0360    -6.4310 C.ar         1 STU1301   0.0000
    27 C1         -20.4140   -20.1200    -5.9740 C.ar         1 STU1301   0.0000
    28 C2         -21.7090   -20.3030    -6.4460 C.ar         1 STU1301   0.0000
    29 C3         -22.0370   -21.3450    -7.3140 C.ar         1 STU1301   0.0000
    30 C4         -21.0980   -22.2720    -7.7750 C.ar         1 STU1301   0.0000
    31 N3         -18.0880   -21.1390    -6.1450 N.pl3        1 STU1301   0.0000
    32 O6         -16.4050   -22.5090    -3.9480 O.3          1 STU1301   0.0000
    33 C27        -15.6920   -23.7210    -3.6410 C.3          1 STU1301   0.0000
    34 N4         -16.2150   -20.4820    -1.6400 N.4          1 STU1301   1.0000
    35 C28        -15.9910   -21.7890    -0.9600 C.3          1 STU1301   0.0000
    36 H1         -17.8080   -19.2848    -5.5588 H            1 STU1301   0.0000
    37 H2         -18.0953   -21.0044    -3.5217 H            1 STU1301   0.0000
    38 H3         -18.0267   -19.3739    -3.4615 H            1 STU1301   0.0000
    39 H4         -15.6661   -19.4332    -3.3094 H            1 STU1301   0.0000
    40 H5         -14.6335   -21.7100    -3.4154 H            1 STU1301   0.0000
    41 H6         -13.1216   -20.9055    -4.9694 H            1 STU1301   0.0000
    42 H7         -13.5991   -19.9558    -6.2090 H            1 STU1301   0.0000
    43 H8         -13.8806   -19.4912    -4.6690 H            1 STU1301   0.0000
    44 H9         -12.3482   -22.3032    -5.5654 H            1 STU1301   0.0000
    45 H10        -10.9592   -24.0073    -6.4938 H            1 STU1301   0.0000
    46 H11        -11.7849   -25.6636    -7.9504 H            1 STU1301   0.0000
    47 H12        -14.1050   -25.7051    -8.5782 H            1 STU1301   0.0000
    48 H13        -16.5133   -26.4292    -8.7519 H            1 STU1301   0.0000
    49 H14        -16.1998   -25.4638   -10.0311 H            1 STU1301   0.0000
    50 H15        -18.4772   -26.5596   -10.3759 H            1 STU1301   0.0000
    51 H16        -20.1818   -19.3785    -5.3446 H            1 STU1301   0.0000
    52 H17        -22.4260   -19.6695    -6.1550 H            1 STU1301   0.0000
    53 H18        -22.9852   -21.4324    -7.6196 H            1 STU1301   0.0000
    54 H19        -21.3485   -23.0122    -8.3990 H            1 STU1301   0.0000
    55 H20        -16.3214   -24.4971    -3.6804 H            1 STU1301   0.0000
    56 H21        -14.9575   -23.8534    -4.3066 H            1 STU1301   0.0000
    57 H22        -15.3017   -23.6546    -2.7227 H            1 STU1301   0.0000
    58 H23        -17.1294   -20.1869    -1.3630 H            1 STU1301   0.0000
    59 H24        -16.0809   -21.6700     0.0288 H            1 STU1301   0.0000
    60 H25        -16.6689   -22.4513    -1.2791 H            1 STU1301   0.0000
    61 H26        -15.0728   -22.1227    -1.1734 H            1 STU1301   0.0000
    62 H27        -15.5333   -19.8584    -1.2574 H            1 STU1301   0.0000
@<TRIPOS>BOND
     1    1    2       1
     2    1    6       1
     3    2    3       1
     4    2   31       1
     5    3    4       1
     6    4    5       1
     7    4   34       1
     8    5    6       1
     9    5   32       1
    10    6    7       1
    11    6    8       1
    12    8    9       1
    13    8   16       1
    14    9   10      ar
    15    9   14      ar
    16   10   11      ar
    17   10   31       1
    18   11   12      ar
    19   11   25       1
    20   12   13      ar
    21   12   23       1
    22   13   14      ar
    23   13   21       1
    24   14   15       1
    25   15   16      ar
    26   15   20      ar
    27   16   17      ar
    28   17   18      ar
    29   18   19      ar
    30   19   20      ar
    31   21   22       1
    32   22   23      am
    33   23   24       2
    34   25   26      ar
    35   25   30      ar
    36   26   27      ar
    37   26   31       1
    38   27   28      ar
    39   28   29      ar
    40   29   30      ar
    41   32   33       1
    42   34   35       1
    43    2   36       1
    44    3   37       1
    45    3   38       1
    46    4   39       1
    47    5   40       1
    48    7   41       1
    49    7   42       1
    50    7   43       1
    51   17   44       1
    52   18   45       1
    53   19   46       1
    54   20   47       1
    55   21   48       1
    56   21   49       1
    57   22   50       1
    58   27   51       1
    59   28   52       1
    60   29   53       1
    61   30   54       1
    62   33   55       1
    63   33   56       1
    64   33   57       1
    65   34   58       1
    66   35   59       1
    67   35   60       1
    68   35   61       1
    69   34   62       1
@<TRIPOS>SUBSTRUCTURE
     1 STU1301     1 GROUP             4 A     STU     0 **** STU A1301
