@<TRIPOS>MOLECULE
./coach420/2nty/ligand.pdb
 28 30 0 0 0
SMALL
GASTEIGER

@<TRIPOS>ATOM
      1  PB        55.7630   65.5350  -22.9790 P.3   1200  GDP1200     0.5373
      2  O1B       55.9110   64.1660  -23.4520 O.2   1200  GDP1200    -0.2221
      3  O2B       54.8000   65.4910  -21.8900 O.3   1200  GDP1200    -0.1143
      4  O3B       57.0070   66.0610  -22.4110 O.3   1200  GDP1200    -0.1143
      5  O3A       55.2250   66.4740  -24.1150 O.3   1200  GDP1200    -0.2261
      6  PA        55.4120   68.0140  -23.9430 P.3   1200  GDP1200     0.2231
      7  O1A       54.1260   68.7350  -23.9600 O.2   1200  GDP1200    -0.5169
      8  O2A       56.1930   68.3150  -22.7350 O.3   1200  GDP1200    -0.4370
      9  O5'       56.1720   68.4310  -25.2360 O.3   1200  GDP1200    -0.3111
     10  C5'       57.4470   68.9700  -25.0830 C.3   1200  GDP1200     0.1813
     11  C4'       57.6950   69.8100  -26.2990 C.3   1200  GDP1200     0.1801
     12  O4'       56.6860   69.4820  -27.2130 O.3   1200  GDP1200    -0.3306
     13  C3'       57.5030   71.2630  -25.9690 C.3   1200  GDP1200     0.2161
     14  O3'       58.6840   71.9550  -26.3330 O.3   1200  GDP1200    -0.2175
     15  C2'       56.4040   71.7260  -26.8750 C.3   1200  GDP1200     0.2337
     16  O2'       56.8860   72.8970  -27.5000 O.3   1200  GDP1200    -0.2155
     17  C1'       56.3790   70.6520  -27.9040 C.3   1200  GDP1200     0.2409
     18  N9        55.0910   70.4930  -28.5530 N.ar  1200  GDP1200    -0.2693
     19  C8        54.0320   69.8110  -28.1450 C.ar  1200  GDP1200     0.1817
     20  N7        53.0420   69.8840  -29.0520 N.ar  1200  GDP1200    -0.2173
     21  C5        53.4860   70.6370  -30.0560 C.ar  1200  GDP1200     0.1748
     22  C6        52.9850   71.1270  -31.3270 C.ar  1200  GDP1200     0.3023
     23  O6        51.8510   70.8540  -31.7010 O.2   1200  GDP1200    -0.2633
     24  N1        53.7840   71.8740  -32.0580 N.ar  1200  GDP1200    -0.1709
     25  C2        55.0070   72.1760  -31.6860 C.ar  1200  GDP1200     0.2606
     26  N2        55.7460   72.9290  -32.4910 N.pl3 1200  GDP1200    -0.0859
     27  N3        55.5400   71.7830  -30.5470 N.ar  1200  GDP1200    -0.1918
     28  C4        54.8360   71.0240  -29.7160 C.ar  1200  GDP1200     0.1723
@<TRIPOS>BOND
     1     1     5    1
     2     1     2    2
     3     1     4    1
     4     1     3    1
     5     5     6    1
     6     6     9    1
     7     6     7    2
     8     6     8    1
     9     9    10    1
    10    10    11    1
    11    11    12    1
    12    11    13    1
    13    12    17    1
    14    13    15    1
    15    13    14    1
    16    15    17    1
    17    15    16    1
    18    17    18    1
    19    18    28   ar
    20    18    19   ar
    21    19    20   ar
    22    20    21   ar
    23    21    22   ar
    24    21    28   ar
    25    22    24   ar
    26    22    23    2
    27    24    25   ar
    28    25    26    1
    29    25    27   ar
    30    27    28   ar
