@<TRIPOS>MOLECULE
2pcm_SAH_1_ligand
   46    48     1     0     0
SMALL
NO_CHARGES


@<TRIPOS>ATOM
     1 N           33.8920    93.1460    67.6940 N.4          1 SAH301   1.0000
     2 CA          32.4330    92.7220    67.6300 C.3          1 SAH301   0.0000
     3 CB          31.8450    92.0400    68.8360 C.3          1 SAH301   0.0000
     4 CG          32.4810    90.7620    69.3630 C.3          1 SAH301   0.0000
     5 SD          31.3200    90.0300    70.5980 S.3          1 SAH301   0.0000
     6 C           31.6140    94.0300    67.2680 C.2          1 SAH301   0.0000
     7 O           32.2310    95.1060    67.1190 O.co2        1 SAH301   0.0000
     8 OXT         30.3300    93.8910    67.1440 O.co2        1 SAH301  -1.0000
     9 C5'         30.3640    88.9830    69.5660 C.3          1 SAH301   0.0000
    10 C4'         28.9040    88.8950    70.1600 C.3          1 SAH301   0.0000
    11 O4'         28.3020    90.1950    69.9720 O.3          1 SAH301   0.0000
    12 C3'         27.9940    87.9070    69.5150 C.3          1 SAH301   0.0000
    13 O3'         28.0950    86.6400    70.1550 O.3          1 SAH301   0.0000
    14 C2'         26.6220    88.6030    69.6750 C.3          1 SAH301   0.0000
    15 O2'         26.0570    88.3730    70.9740 O.3          1 SAH301   0.0000
    16 C1'         26.9280    90.0800    69.3950 C.3          1 SAH301   0.0000
    17 N9          26.9010    90.4360    68.0880 N.pl3        1 SAH301   0.0000
    18 C8          27.8590    90.7450    67.1360 C.2          1 SAH301   0.0000
    19 N7          27.3920    91.0600    65.9630 N.2          1 SAH301   0.0000
    20 C5          25.9760    90.9660    66.1050 C.ar         1 SAH301   0.0000
    21 C6          24.8960    91.2010    65.1710 C.ar         1 SAH301   0.0000
    22 N6          25.0740    91.5700    63.8910 N.pl3        1 SAH301   0.0000
    23 N1          23.6300    91.0100    65.6870 N.ar         1 SAH301   0.0000
    24 C2          23.3970    90.6340    66.9750 C.ar         1 SAH301   0.0000
    25 N3          24.3990    90.4000    67.8910 N.ar         1 SAH301   0.0000
    26 C4          25.6590    90.5980    67.3900 C.ar         1 SAH301   0.0000
    27 H1          34.4704    92.4015    67.3605 H            1 SAH301   0.0000
    28 H2          34.0291    93.9558    67.1235 H            1 SAH301   0.0000
    29 HA          32.3410    92.0919    66.8590 H            1 SAH301   0.0000
    30 HB1         30.8957    91.8203    68.6111 H            1 SAH301   0.0000
    31 HB2         31.8654    92.7039    69.5835 H            1 SAH301   0.0000
    32 HG1         33.3560    90.9713    69.7996 H            1 SAH301   0.0000
    33 HG2         32.6289    90.1194    68.6112 H            1 SAH301   0.0000
    34 H5'1        30.7730    88.0709    69.5388 H            1 SAH301   0.0000
    35 H5'2        30.3299    89.3607    68.6407 H            1 SAH301   0.0000
    36 H4'         28.9599    88.6984    71.1389 H            1 SAH301   0.0000
    37 H3'         28.2200    87.8179    68.5450 H            1 SAH301   0.0000
    38 H12         27.8425    86.7320    71.1182 H            1 SAH301   0.0000
    39 H2'         25.9943    88.2584    68.9769 H            1 SAH301   0.0000
    40 H14         25.1770    87.9081    70.8772 H            1 SAH301   0.0000
    41 H1'         26.2971    90.6575    69.9131 H            1 SAH301   0.0000
    42 H16         28.8387    90.7272    67.3359 H            1 SAH301   0.0000
    43 H17         24.2821    91.7162    63.2980 H            1 SAH301   0.0000
    44 H18         25.9983    91.6984    63.5316 H            1 SAH301   0.0000
    45 H19         22.4486    90.5219    67.2715 H            1 SAH301   0.0000
    46 H20         34.1359    93.3595    68.6400 H            1 SAH301   0.0000
@<TRIPOS>BOND
     1    1    2       1
     2    2    3       1
     3    2    6       1
     4    3    4       1
     5    4    5       1
     6    5    9       1
     7    6    7      ar
     8    6    8      ar
     9    9   10       1
    10   10   11       1
    11   10   12       1
    12   11   16       1
    13   12   13       1
    14   12   14       1
    15   14   15       1
    16   14   16       1
    17   16   17       1
    18   17   18       1
    19   17   26       1
    20   18   19       2
    21   19   20       1
    22   20   21      ar
    23   20   26      ar
    24   21   22       1
    25   21   23      ar
    26   23   24      ar
    27   24   25      ar
    28   25   26      ar
    29    1   27       1
    30    1   28       1
    31    2   29       1
    32    3   30       1
    33    3   31       1
    34    4   32       1
    35    4   33       1
    36    1   46       1
    37    9   34       1
    38    9   35       1
    39   10   36       1
    40   12   37       1
    41   13   38       1
    42   14   39       1
    43   15   40       1
    44   16   41       1
    45   18   42       1
    46   22   43       1
    47   22   44       1
    48   24   45       1
@<TRIPOS>SUBSTRUCTURE
     1 SAH301      1 GROUP             4 A     SAH     0 **** SAH A 301
