@<TRIPOS>MOLECULE
3ei8_PL5_2_ligand
   47    47     1     0     0
SMALL
NO_CHARGES


@<TRIPOS>ATOM
     1 OAI        -31.9860    55.8520    29.2250 O.co2        1 PL5433   0.0000
     2 PBB        -32.7710    55.8930    27.8660 P.3          1 PL5433   0.0000
     3 OAJ        -33.8720    54.7520    27.8890 O.co2        1 PL5433  -1.0000
     4 OAE        -31.8630    55.7220    26.6800 O.co2        1 PL5433  -1.0000
     5 OAS        -33.5010    57.3200    27.7970 O.3          1 PL5433   0.0000
     6 CAP        -32.7930    58.5060    27.3800 C.3          1 PL5433   0.0000
     7 CAW        -33.7240    59.7200    27.3420 C.2          1 PL5433   0.0000
     8 CAL        -34.7540    59.7250    26.3880 C.2          1 PL5433   0.0000
     9 NAR        -35.6060    60.7390    26.2730 N.2          1 PL5433   0.0000
    10 CAV        -35.5210    61.8000    27.0840 C.2          1 PL5433   0.0000
    11 CAA        -36.5220    62.9420    26.9220 C.3          1 PL5433   0.0000
    12 CAX        -34.5250    61.8670    28.0530 C.2          1 PL5433   0.0000
    13 OAH        -34.4590    62.9540    28.8530 O.2          1 PL5433   0.0000
    14 CAY        -33.5960    60.8320    28.1860 C.2          1 PL5433   0.0000
    15 CAK        -32.6210    60.9120    29.2010 C.2          1 PL5433   0.0000
    16 NAQ        -32.1070    62.0920    29.5360 N.pl3        1 PL5433   0.0000
    17 CBA        -31.2410    62.3400    30.7040 C.3          1 PL5433   0.0000
    18 CAU        -31.0660    63.8520    30.8780 C.2          1 PL5433   0.0000
    19 OAG        -31.6760    64.6110    30.0880 O.co2        1 PL5433   0.0000
    20 OAD        -30.2620    64.2360    31.7650 O.co2        1 PL5433  -1.0000
    21 CAO        -29.8880    61.5830    30.6680 C.3          1 PL5433   0.0000
    22 CAM        -28.8800    62.2220    29.7030 C.3          1 PL5433   0.0000
    23 CB         -27.5710    61.4150    29.6670 C.3          1 PL5433   0.0000
    24 CA         -27.7490    60.0570    28.9730 C.3          1 PL5433   0.0000
    25 C          -28.3770    60.2980    27.5990 C.2          1 PL5433   0.0000
    26 OXT        -27.6340    60.7940    26.7250 O.co2        1 PL5433   0.0000
    27 O          -29.5910    60.0230    27.4750 O.co2        1 PL5433  -1.0000
    28 N          -26.4170    59.4320    28.8240 N.4          1 PL5433   1.0000
    29 HAP1       -32.4147    58.3561    26.4666 H            1 PL5433   0.0000
    30 HAP2       -32.0490    58.6853    28.0237 H            1 PL5433   0.0000
    31 HAL        -34.8499    58.9406    25.7753 H            1 PL5433   0.0000
    32 HAA1       -36.3274    63.6541    27.5966 H            1 PL5433   0.0000
    33 HAA2       -36.4448    63.3249    26.0014 H            1 PL5433   0.0000
    34 HAA3       -37.4493    62.5948    27.0619 H            1 PL5433   0.0000
    35 HAK        -32.3161    60.0823    29.6687 H            1 PL5433   0.0000
    36 HBA        -31.7365    62.0108    31.5078 H            1 PL5433   0.0000
    37 HAO1       -30.0558    60.6407    30.3783 H            1 PL5433   0.0000
    38 HAO2       -29.4958    61.5841    31.5879 H            1 PL5433   0.0000
    39 HAM1       -28.6821    63.1543    30.0057 H            1 PL5433   0.0000
    40 HAM2       -29.2754    62.2465    28.7848 H            1 PL5433   0.0000
    41 HB1        -27.2620    61.2596    30.6053 H            1 PL5433   0.0000
    42 HB2        -26.8806    61.9423    29.1717 H            1 PL5433   0.0000
    43 HA         -28.3430    59.4684    29.5215 H            1 PL5433   0.0000
    44 H16        -26.5137    58.5448    28.3729 H            1 PL5433   0.0000
    45 H17        -25.8306    60.0246    28.2717 H            1 PL5433   0.0000
    46 HAQ        -32.3248    62.8725    28.9500 H            1 PL5433   0.0000
    47 H19        -26.0060    59.3040    29.7266 H            1 PL5433   0.0000
@<TRIPOS>BOND
     1    1    2      ar
     2    2    3      ar
     3    2    4      ar
     4    2    5       1
     5    5    6       1
     6    6    7       1
     7    7    8       2
     8    7   14       1
     9    8    9       1
    10    9   10       2
    11   10   11       1
    12   10   12       1
    13   12   13       2
    14   12   14       1
    15   14   15       2
    16   15   16       1
    17   16   17       1
    18   17   18       1
    19   17   21       1
    20   18   19      ar
    21   18   20      ar
    22   21   22       1
    23   22   23       1
    24   23   24       1
    25   24   25       1
    26   24   28       1
    27   25   26      ar
    28   25   27      ar
    29   28   45       1
    30   28   44       1
    31    6   29       1
    32    6   30       1
    33    8   31       1
    34   11   32       1
    35   11   33       1
    36   11   34       1
    37   24   43       1
    38   15   35       1
    39   17   36       1
    40   16   46       1
    41   21   37       1
    42   21   38       1
    43   22   39       1
    44   22   40       1
    45   23   41       1
    46   23   42       1
    47   28   47       1
@<TRIPOS>SUBSTRUCTURE
     1 PL5433      1 GROUP             4 B     PL5     0 **** PL5 B 433
