@<TRIPOS>MOLECULE
2cdq_SAM_1_ligand
   50    52     1     0     0
SMALL
NO_CHARGES


@<TRIPOS>ATOM
     1 N           73.2450    57.3560   111.9980 N.4          1 SAM1500   1.0000
     2 CA          72.7400    56.2360   111.2090 C.3          1 SAM1500   0.0000
     3 C           71.2770    55.9070   111.5190 C.2          1 SAM1500   0.0000
     4 O           70.4940    55.5820   110.6220 O.co2        1 SAM1500   0.0000
     5 OXT         70.8440    55.9520   112.6720 O.co2        1 SAM1500  -1.0000
     6 CB          73.6200    55.0060   111.4140 C.3          1 SAM1500   0.0000
     7 CG          73.4600    53.9090   110.3560 C.3          1 SAM1500   0.0000
     8 SD          72.8760    52.3610   111.0880 S.3          1 SAM1500   1.0000
     9 CE          74.3690    51.7780   111.9290 C.3          1 SAM1500   0.0000
    10 C5'         72.6280    51.1890   109.7150 C.3          1 SAM1500   0.0000
    11 C4'         73.6740    51.1220   108.5970 C.3          1 SAM1500   0.0000
    12 O4'         74.9380    50.7200   109.0840 O.3          1 SAM1500   0.0000
    13 C3'         73.2890    50.1020   107.5350 C.3          1 SAM1500   0.0000
    14 O3'         73.4870    50.6850   106.2690 O.3          1 SAM1500   0.0000
    15 C2'         74.2380    48.9300   107.7060 C.3          1 SAM1500   0.0000
    16 O2'         74.6800    48.4220   106.4630 O.3          1 SAM1500   0.0000
    17 C1'         75.4070    49.5270   108.4680 C.3          1 SAM1500   0.0000
    18 N9          75.9760    48.6250   109.4940 N.pl3        1 SAM1500   0.0000
    19 C8          77.2340    48.0810   109.4700 C.2          1 SAM1500   0.0000
    20 N7          77.4170    47.3350   110.5800 N.2          1 SAM1500   0.0000
    21 C5          76.2950    47.3980   111.3230 C.ar         1 SAM1500   0.0000
    22 C6          75.9460    46.8250   112.5440 C.ar         1 SAM1500   0.0000
    23 N6          76.8020    46.0460   113.2000 N.pl3        1 SAM1500   0.0000
    24 N1          74.6950    47.0700   113.0730 N.ar         1 SAM1500   0.0000
    25 C2          73.8010    47.8760   112.3930 C.ar         1 SAM1500   0.0000
    26 N3          74.1560    48.4400   111.1810 N.ar         1 SAM1500   0.0000
    27 C4          75.3810    48.2080   110.6550 C.ar         1 SAM1500   0.0000
    28 H1          74.2003    57.5288   111.7581 H            1 SAM1500   0.0000
    29 H2          72.7001    58.1720   111.8053 H            1 SAM1500   0.0000
    30 HA          72.7964    56.4933   110.2443 H            1 SAM1500   0.0000
    31 HB1         73.3980    54.6113   112.3056 H            1 SAM1500   0.0000
    32 HB2         74.5746    55.3038   111.4096 H            1 SAM1500   0.0000
    33 HG1         74.3447    53.7480   109.9186 H            1 SAM1500   0.0000
    34 HG2         72.7994    54.2134   109.6698 H            1 SAM1500   0.0000
    35 HE1         74.1770    50.9089   112.3848 H            1 SAM1500   0.0000
    36 HE2         75.1000    51.6486   111.2590 H            1 SAM1500   0.0000
    37 HE3         74.6549    52.4544   112.6078 H            1 SAM1500   0.0000
    38 H5'1        71.7550    51.4209   109.2859 H            1 SAM1500   0.0000
    39 H5'2        72.5696    50.2751   110.1168 H            1 SAM1500   0.0000
    40 H4'         73.7577    52.0231   108.1715 H            1 SAM1500   0.0000
    41 H3'         72.3391    49.8108   107.6485 H            1 SAM1500   0.0000
    42 H15         73.2387    50.0281   105.5570 H            1 SAM1500   0.0000
    43 H2'         73.8048    48.2067   108.2437 H            1 SAM1500   0.0000
    44 H17         75.5156    48.8969   106.1869 H            1 SAM1500   0.0000
    45 H1'         76.1267    49.7648   107.8157 H            1 SAM1500   0.0000
    46 H19         77.9093    48.2155   108.7449 H            1 SAM1500   0.0000
    47 H20         76.5392    45.6407   114.0756 H            1 SAM1500   0.0000
    48 H21         77.7082    45.8657   112.8175 H            1 SAM1500   0.0000
    49 H22         72.8952    48.0517   112.7785 H            1 SAM1500   0.0000
    50 H23         73.1805    57.1342   112.9710 H            1 SAM1500   0.0000
@<TRIPOS>BOND
     1    1    2       1
     2    2    3       1
     3    2    6       1
     4    3    4      ar
     5    3    5      ar
     6    6    7       1
     7    7    8       1
     8    8    9       1
     9    8   10       1
    10   10   11       1
    11   11   12       1
    12   11   13       1
    13   12   17       1
    14   13   14       1
    15   13   15       1
    16   15   16       1
    17   15   17       1
    18   17   18       1
    19   18   19       1
    20   18   27       1
    21   19   20       2
    22   20   21       1
    23   21   22      ar
    24   21   27      ar
    25   22   23       1
    26   22   24      ar
    27   24   25      ar
    28   25   26      ar
    29   26   27      ar
    30    1   28       1
    31    1   29       1
    32    2   30       1
    33    1   50       1
    34    6   31       1
    35    6   32       1
    36    7   33       1
    37    7   34       1
    38    9   35       1
    39    9   36       1
    40    9   37       1
    41   10   38       1
    42   10   39       1
    43   11   40       1
    44   13   41       1
    45   14   42       1
    46   15   43       1
    47   16   44       1
    48   17   45       1
    49   19   46       1
    50   23   47       1
    51   23   48       1
    52   25   49       1
@<TRIPOS>SUBSTRUCTURE
     1 SAM1500     1 GROUP             4 A     SAM     0 **** SAM A1500
