@<TRIPOS>MOLECULE
3iif_APR_3_ligand
   57    60     1     0     0
SMALL
NO_CHARGES


@<TRIPOS>ATOM
     1 N1          22.0800     5.5010    24.3980 N.ar         1 APR400   0.0000
     2 C2          21.6080     4.8280    23.3180 C.ar         1 APR400   0.0000
     3 N3          20.3560     4.3650    23.2320 N.ar         1 APR400   0.0000
     4 C4          19.4760     4.5880    24.2550 C.ar         1 APR400   0.0000
     5 C5          19.8980     5.3190    25.4460 C.ar         1 APR400   0.0000
     6 C6          21.2900     5.7620    25.4570 C.ar         1 APR400   0.0000
     7 N6          21.7230     6.4070    26.5210 N.pl3        1 APR400   0.0000
     8 N7          18.8690     5.3560    26.3030 N.2          1 APR400   0.0000
     9 C8          17.8260     4.7450    25.7070 C.2          1 APR400   0.0000
    10 N9          18.2070     4.2810    24.4960 N.pl3        1 APR400   0.0000
    11 C1'         17.4240     3.5790    23.5100 C.3          1 APR400   0.0000
    12 C2'         16.0270     3.1130    23.9500 C.3          1 APR400   0.0000
    13 O2'         16.0770     1.9310    24.7000 O.3          1 APR400   0.0000
    14 C3'         15.3360     2.9280    22.6210 C.3          1 APR400   0.0000
    15 O3'         15.5440     1.5700    22.1750 O.3          1 APR400   0.0000
    16 O4'         17.1340     4.5220    22.5010 O.3          1 APR400   0.0000
    17 C4'         16.0130     3.9970    21.7430 C.3          1 APR400   0.0000
    18 C5'         15.0930     5.1180    21.2400 C.3          1 APR400   0.0000
    19 O5'         14.2510     5.6390    22.2800 O.3          1 APR400   0.0000
    20 PA          13.7730     7.1630    22.2810 P.3          1 APR400   0.0000
    21 O1A         14.9570     8.0710    22.4460 O.co2        1 APR400   0.0000
    22 O2A         12.5980     7.2470    23.2430 O.co2        1 APR400  -1.0000
    23 O3A         13.3220     7.4670    20.7730 O.3          1 APR400   0.0000
    24 PB          11.9560     7.1560    19.9770 P.3          1 APR400   0.0000
    25 O1B         12.2850     7.3670    18.5210 O.co2        1 APR400   0.0000
    26 O2B         11.3560     5.8610    20.4300 O.co2        1 APR400  -1.0000
    27 O5D         10.9250     8.3720    20.2740 O.3          1 APR400   0.0000
    28 C5D         11.3660     9.6280    20.7710 C.3          1 APR400   0.0000
    29 O4D         10.8790    11.9680    20.9150 O.3          1 APR400   0.0000
    30 O1D         10.1450    13.8900    21.9040 O.3          1 APR400   0.0000
    31 C1D          9.8010    12.9020    20.9430 C.3          1 APR400   0.0000
    32 O2D          7.5310    12.1350    20.3650 O.3          1 APR400   0.0000
    33 C2D          8.5630    12.1110    21.3510 C.3          1 APR400   0.0000
    34 O3D          9.4890    10.6140    22.8710 O.3          1 APR400   0.0000
    35 C3D          9.0940    10.7070    21.5060 C.3          1 APR400   0.0000
    36 C4D         10.3040    10.7060    20.5950 C.3          1 APR400   0.0000
    37 H1          22.2269     4.6705    22.5485 H            1 APR400   0.0000
    38 H2          21.1038     6.5808    27.2868 H            1 APR400   0.0000
    39 H3          22.6709     6.7228    26.5629 H            1 APR400   0.0000
    40 H4          16.9114     4.6496    26.1000 H            1 APR400   0.0000
    41 H1'         17.9442     2.8130    23.1323 H            1 APR400   0.0000
    42 H2'         15.5742     3.8337    24.4749 H            1 APR400   0.0000
    43 H7          16.4884     1.2043    24.1499 H            1 APR400   0.0000
    44 H3'         14.3583     3.1188    22.7085 H            1 APR400   0.0000
    45 H9          15.0902     1.4352    21.2942 H            1 APR400   0.0000
    46 H4'         16.3859     3.5326    20.9397 H            1 APR400   0.0000
    47 H5'1        14.5146     4.7558    20.5090 H            1 APR400   0.0000
    48 H5'2        15.6579     5.8610    20.8810 H            1 APR400   0.0000
    49 H5D1        12.1908     9.9013    20.2759 H            1 APR400   0.0000
    50 H5D2        11.5766     9.5359    21.7442 H            1 APR400   0.0000
    51 H1D         10.1857    14.7857    21.4613 H            1 APR400   0.0000
    52 H16          9.6720    13.3172    20.0425 H            1 APR400   0.0000
    53 H2D          6.7490    11.6018    20.6879 H            1 APR400   0.0000
    54 H18          8.2124    12.4458    22.2256 H            1 APR400   0.0000
    55 H3D          8.6968    10.7770    23.4591 H            1 APR400   0.0000
    56 H20          8.4215    10.0117    21.2524 H            1 APR400   0.0000
    57 H4D          9.9990    10.7152    19.6427 H            1 APR400   0.0000
@<TRIPOS>BOND
     1    1    2      ar
     2    1    6      ar
     3    2    3      ar
     4    3    4      ar
     5    4    5      ar
     6    4   10       1
     7    5    6      ar
     8    5    8       1
     9    6    7       1
    10    8    9       2
    11    9   10       1
    12   10   11       1
    13   11   12       1
    14   11   16       1
    15   12   13       1
    16   12   14       1
    17   14   15       1
    18   14   17       1
    19   16   17       1
    20   17   18       1
    21   18   19       1
    22   19   20       1
    23   20   21      ar
    24   20   22      ar
    25   20   23       1
    26   23   24       1
    27   24   25      ar
    28   24   26      ar
    29   24   27       1
    30   27   28       1
    31   28   36       1
    32   29   31       1
    33   29   36       1
    34   30   31       1
    35   31   33       1
    36   32   33       1
    37   33   35       1
    38   34   35       1
    39   35   36       1
    40    2   37       1
    41    7   38       1
    42    7   39       1
    43    9   40       1
    44   11   41       1
    45   12   42       1
    46   13   43       1
    47   14   44       1
    48   15   45       1
    49   17   46       1
    50   18   47       1
    51   18   48       1
    52   36   57       1
    53   35   56       1
    54   28   49       1
    55   28   50       1
    56   30   51       1
    57   31   52       1
    58   32   53       1
    59   33   54       1
    60   34   55       1
@<TRIPOS>SUBSTRUCTURE
     1 APR400      1 GROUP             4 C     APR     0 **** APR C 400
