@<TRIPOS>MOLECULE
1i4l_GDP_1_ligand
   40    42     1     0     0
SMALL
NO_CHARGES


@<TRIPOS>ATOM
     1 PB           7.4330    30.4290    -9.5150 P.3          1 GDP200   0.0000
     2 O1B          8.0850    30.5990   -10.8320 O.co2        1 GDP200   0.0000
     3 O2B          8.1170    31.2740    -8.4140 O.co2        1 GDP200  -1.0000
     4 O3B          5.9640    30.8550    -9.6580 O.co2        1 GDP200  -1.0000
     5 O3A          7.5260    28.8710    -9.1740 O.3          1 GDP200   0.0000
     6 PA           8.0580    28.3170    -7.7680 P.3          1 GDP200   0.0000
     7 O1A          9.5200    28.4650    -7.6210 O.co2        1 GDP200   0.0000
     8 O2A          7.2830    28.9170    -6.5750 O.co2        1 GDP200  -1.0000
     9 O5'          7.6910    26.7620    -7.9280 O.3          1 GDP200   0.0000
    10 C5'          6.3370    26.3720    -7.8810 C.3          1 GDP200   0.0000
    11 C4'          6.2770    24.9220    -7.4340 C.3          1 GDP200   0.0000
    12 O4'          7.1590    24.1810    -8.2480 O.3          1 GDP200   0.0000
    13 C3'          6.7410    24.7400    -5.9980 C.3          1 GDP200   0.0000
    14 O3'          5.8550    23.8370    -5.3610 O.3          1 GDP200   0.0000
    15 C2'          8.1550    24.1920    -6.1410 C.3          1 GDP200   0.0000
    16 O2'          8.5450    23.3070    -5.1160 O.3          1 GDP200   0.0000
    17 C1'          8.0860    23.4680    -7.4670 C.3          1 GDP200   0.0000
    18 N9           9.3550    23.4930    -8.1880 N.pl3        1 GDP200   0.0000
    19 C8          10.0470    24.6000    -8.5930 C.2          1 GDP200   0.0000
    20 N7          11.1580    24.1810    -9.2460 N.2          1 GDP200   0.0000
    21 C5          11.1680    22.8300    -9.2710 C.2          1 GDP200   0.0000
    22 C6          12.0550    21.9010    -9.8060 C.2          1 GDP200   0.0000
    23 O6          13.1390    22.2690   -10.2730 O.2          1 GDP200   0.0000
    24 N1          11.7790    20.5520    -9.6640 N.pl3        1 GDP200   0.0000
    25 C2          10.6380    20.1440    -9.0000 C.2          1 GDP200   0.0000
    26 N2          10.4730    18.8660    -8.6780 N.pl3        1 GDP200   0.0000
    27 N3           9.7690    21.0740    -8.4800 N.2          1 GDP200   0.0000
    28 C4          10.0330    22.3900    -8.6110 C.2          1 GDP200   0.0000
    29 H5'1         5.9264    26.4640    -8.7882 H            1 GDP200   0.0000
    30 H5'2         5.8412    26.9476    -7.2308 H            1 GDP200   0.0000
    31 H4'          5.3455    24.5730    -7.5369 H            1 GDP200   0.0000
    32 H3'          6.7517    25.6177    -5.5189 H            1 GDP200   0.0000
    33 H5           6.1417    23.7019    -4.4126 H            1 GDP200   0.0000
    34 H2'          8.8066    24.9481    -6.2016 H            1 GDP200   0.0000
    35 H7           9.2011    22.6452    -5.4787 H            1 GDP200   0.0000
    36 H1'          7.7787    22.5257    -7.3344 H            1 GDP200   0.0000
    37 H9           9.7805    25.5509    -8.4353 H            1 GDP200   0.0000
    38 H10         12.4064    19.8716   -10.0426 H            1 GDP200   0.0000
    39 H11          9.6460    18.5742    -8.1975 H            1 GDP200   0.0000
    40 H12         11.1758    18.1956    -8.9161 H            1 GDP200   0.0000
@<TRIPOS>BOND
     1    1    2      ar
     2    1    3      ar
     3    1    4      ar
     4    1    5       1
     5    5    6       1
     6    6    7      ar
     7    6    8      ar
     8    6    9       1
     9    9   10       1
    10   10   11       1
    11   11   12       1
    12   11   13       1
    13   12   17       1
    14   13   14       1
    15   13   15       1
    16   15   16       1
    17   15   17       1
    18   17   18       1
    19   18   19       1
    20   18   28       1
    21   19   20       2
    22   20   21       1
    23   21   22       1
    24   21   28       2
    25   22   23       2
    26   22   24       1
    27   24   25       1
    28   25   26       1
    29   25   27       2
    30   27   28       1
    31   26   40       1
    32   26   39       1
    33   24   38       1
    34   10   29       1
    35   10   30       1
    36   11   31       1
    37   13   32       1
    38   14   33       1
    39   15   34       1
    40   16   35       1
    41   17   36       1
    42   19   37       1
@<TRIPOS>SUBSTRUCTURE
     1 GDP200      1 GROUP             4 D     GDP     0 **** GDP D 200
