@<TRIPOS>MOLECULE
3cx6_GDP_1_ligand
   40    42     1     0     0
SMALL
NO_CHARGES


@<TRIPOS>ATOM
     1 PB         -11.5920    -8.7600    15.9260 P.3          1 GDP775   0.0000
     2 O1B        -13.0050    -8.7030    15.4340 O.co2        1 GDP775   0.0000
     3 O2B        -10.6860    -7.9640    15.0250 O.co2        1 GDP775  -1.0000
     4 O3B        -11.5020    -8.3150    17.3710 O.co2        1 GDP775  -1.0000
     5 O3A        -11.2100   -10.3060    15.9000 O.3          1 GDP775   0.0000
     6 PA          -9.7430   -10.7370    15.4680 P.3          1 GDP775   0.0000
     7 O1A         -9.5480   -10.6340    13.9770 O.co2        1 GDP775   0.0000
     8 O2A         -8.6940   -10.0300    16.2270 O.co2        1 GDP775  -1.0000
     9 O5'         -9.7350   -12.2810    15.9210 O.3          1 GDP775   0.0000
    10 C5'         -9.8250   -12.7370    17.2770 C.3          1 GDP775   0.0000
    11 C4'         -9.0230   -14.0400    17.3040 C.3          1 GDP775   0.0000
    12 O4'         -9.6700   -15.0670    16.5410 O.3          1 GDP775   0.0000
    13 C3'         -7.6560   -13.8940    16.6180 C.3          1 GDP775   0.0000
    14 O3'         -6.7290   -14.7160    17.2970 O.3          1 GDP775   0.0000
    15 C2'         -7.8490   -14.4620    15.2210 C.3          1 GDP775   0.0000
    16 O2'         -6.6580   -14.9670    14.6280 O.3          1 GDP775   0.0000
    17 C1'         -8.8070   -15.5810    15.5050 C.3          1 GDP775   0.0000
    18 N9          -9.7330   -15.9160    14.3990 N.pl3        1 GDP775   0.0000
    19 C8         -10.4350   -15.0830    13.5890 C.2          1 GDP775   0.0000
    20 N7         -11.2180   -15.7660    12.7160 N.2          1 GDP775   0.0000
    21 C5         -11.0300   -17.0810    12.9830 C.2          1 GDP775   0.0000
    22 C6         -11.5250   -18.3940    12.4670 C.2          1 GDP775   0.0000
    23 O6         -12.3630   -18.5240    11.5490 O.2          1 GDP775   0.0000
    24 N1         -11.0590   -19.4850    13.0380 N.pl3        1 GDP775   0.0000
    25 C2         -10.1580   -19.5200    14.0250 C.2          1 GDP775   0.0000
    26 N2          -9.7740   -20.7400    14.4790 N.pl3        1 GDP775   0.0000
    27 N3          -9.6460   -18.3880    14.5640 N.2          1 GDP775   0.0000
    28 C4         -10.0580   -17.1690    14.0960 C.2          1 GDP775   0.0000
    29 H5'1       -10.7779   -12.9043    17.5301 H            1 GDP775   0.0000
    30 H5'2        -9.4272   -12.0653    17.9019 H            1 GDP775   0.0000
    31 H4'         -8.8993   -14.3442    18.2485 H            1 GDP775   0.0000
    32 H3'         -7.3552   -12.9407    16.5915 H            1 GDP775   0.0000
    33 H5          -5.8313   -14.6342    16.8640 H            1 GDP775   0.0000
    34 H2'         -8.2745   -13.7820    14.6239 H            1 GDP775   0.0000
    35 H7          -6.2030   -14.2360    14.1195 H            1 GDP775   0.0000
    36 H1'         -8.3195   -16.3954    15.8197 H            1 GDP775   0.0000
    37 H9         -10.3815   -14.0853    13.6306 H            1 GDP775   0.0000
    38 H10        -11.4084   -20.3610    12.7055 H            1 GDP775   0.0000
    39 H11         -9.1021   -20.8104    15.2163 H            1 GDP775   0.0000
    40 H12        -10.1630   -21.5685    14.0762 H            1 GDP775   0.0000
@<TRIPOS>BOND
     1    1    2      ar
     2    1    3      ar
     3    1    4      ar
     4    1    5       1
     5    5    6       1
     6    6    7      ar
     7    6    8      ar
     8    6    9       1
     9    9   10       1
    10   10   11       1
    11   11   12       1
    12   11   13       1
    13   12   17       1
    14   13   14       1
    15   13   15       1
    16   15   16       1
    17   15   17       1
    18   17   18       1
    19   18   19       1
    20   18   28       1
    21   19   20       2
    22   20   21       1
    23   21   22       1
    24   21   28       2
    25   22   23       2
    26   22   24       1
    27   24   25       1
    28   25   26       1
    29   25   27       2
    30   27   28       1
    31   26   40       1
    32   26   39       1
    33   24   38       1
    34   10   29       1
    35   10   30       1
    36   11   31       1
    37   13   32       1
    38   14   33       1
    39   15   34       1
    40   16   35       1
    41   17   36       1
    42   19   37       1
@<TRIPOS>SUBSTRUCTURE
     1 GDP775      1 GROUP             4 A     GDP     0 **** GDP A 775
