@<TRIPOS>MOLECULE
3d2m_COA_1_ligand
   78    80     1     0     0
SMALL
NO_CHARGES


@<TRIPOS>ATOM
     1 N1A         40.1920    -0.4250    20.7780 N.ar         1 COA437   0.0000
     2 C2A         39.3960     0.1920    21.6630 C.ar         1 COA437   0.0000
     3 N3A         39.0980     1.4880    21.5380 N.ar         1 COA437   0.0000
     4 C4A         39.5920     2.2110    20.5060 C.ar         1 COA437   0.0000
     5 C5A         40.4260     1.5990    19.5610 C.ar         1 COA437   0.0000
     6 C6A         40.7060     0.2570    19.7120 C.ar         1 COA437   0.0000
     7 N6A         41.4990    -0.2990    18.8160 N.pl3        1 COA437   0.0000
     8 N7A         40.8090     2.4990    18.6550 N.2          1 COA437   0.0000
     9 C8A         40.2130     3.6510    18.9770 C.2          1 COA437   0.0000
    10 N9A         39.4620     3.4780    20.1060 N.pl3        1 COA437   0.0000
    11 C1B         38.6930     4.5810    20.7890 C.3          1 COA437   0.0000
    12 C2B         39.7560     5.7160    20.8890 C.3          1 COA437   0.0000
    13 O2B         40.7980     5.3740    21.8520 O.3          1 COA437   0.0000
    14 C3B         38.8840     6.8850    21.3190 C.3          1 COA437   0.0000
    15 O3B         38.7990     6.7460    22.7470 O.3          1 COA437   0.0000
    16 P3B         38.1410     7.9070    23.7590 P.3          1 COA437   0.0000
    17 O7A         36.5090     7.9020    23.5640 O.co2        1 COA437   0.0000
    18 O8A         38.4400     7.1510    25.1630 O.co2        1 COA437  -1.0000
    19 O9A         38.8040     9.1730    23.3540 O.co2        1 COA437  -1.0000
    20 C4B         37.5190     6.6110    20.5800 C.3          1 COA437   0.0000
    21 O4B         37.5940     5.2670    20.0460 O.3          1 COA437   0.0000
    22 C5B         37.3340     7.4150    19.3040 C.3          1 COA437   0.0000
    23 O5B         36.1180     7.1290    18.6390 O.3          1 COA437   0.0000
    24 P1A         35.7170     8.1670    17.4280 P.3          1 COA437   0.0000
    25 O1A         34.2330     8.2870    17.2830 O.co2        1 COA437   0.0000
    26 O2A         36.5210     9.4170    17.5100 O.co2        1 COA437  -1.0000
    27 O3A         36.2870     7.4370    16.0270 O.3          1 COA437   0.0000
    28 P2A         37.7080     7.6310    15.3570 P.3          1 COA437   0.0000
    29 O4A         38.7520     7.6320    16.3710 O.co2        1 COA437   0.0000
    30 O5A         37.6550     8.7100    14.3630 O.co2        1 COA437  -1.0000
    31 O6A         37.8850     6.1190    14.5820 O.3          1 COA437   0.0000
    32 CBP         38.6310     3.7470    14.6580 C.3          1 COA437   0.0000
    33 CCP         38.0060     4.9230    15.4160 C.3          1 COA437   0.0000
    34 CDP         37.9000     3.5620    13.2940 C.3          1 COA437   0.0000
    35 CEP         38.4970     2.4730    15.4980 C.3          1 COA437   0.0000
    36 CAP         40.1440     4.1040    14.4810 C.3          1 COA437   0.0000
    37 OAP         40.2040     5.4630    14.1460 O.3          1 COA437   0.0000
    38 C9P         40.7400     3.4310    13.2470 C.2          1 COA437   0.0000
    39 O9P         40.4400     3.8540    12.1070 O.2          1 COA437   0.0000
    40 N8P         41.5830     2.4350    13.5520 N.am         1 COA437   0.0000
    41 C7P         42.2360     1.6290    12.5020 C.3          1 COA437   0.0000
    42 C6P         41.0920     1.1520    11.5680 C.3          1 COA437   0.0000
    43 C5P         40.2190     0.0810    12.2330 C.2          1 COA437   0.0000
    44 O5P         40.6170    -0.5810    13.2200 O.2          1 COA437   0.0000
    45 N4P         39.0390    -0.0280    11.5880 N.2          1 COA437   0.0000
    46 C3P         37.9940    -0.8330    11.8000 C.2          1 COA437   0.0000
    47 C2P         37.8790    -1.8130    12.7840 C.3          1 COA437   0.0000
    48 S1P         37.4680    -3.5160    12.1120 S.3          1 COA437   0.0000
    49 H2A         39.0188    -0.3271    22.4300 H            1 COA437   0.0000
    50 H6A1        41.8494     0.2440    18.0529 H            1 COA437   0.0000
    51 H6A2        41.7496    -1.2634    18.9000 H            1 COA437   0.0000
    52 H8A         40.3027     4.5081    18.4698 H            1 COA437   0.0000
    53 H1B         38.3874     4.2953    21.6973 H            1 COA437   0.0000
    54 H2B         40.1583     5.8949    19.9911 H            1 COA437   0.0000
    55 H7          41.4663     6.1165    21.8977 H            1 COA437   0.0000
    56 H3B         39.2814     7.7634    21.0534 H            1 COA437   0.0000
    57 H4B         36.7396     6.7177    21.1973 H            1 COA437   0.0000
    58 H5B1        38.0916     7.2082    18.6849 H            1 COA437   0.0000
    59 H5B2        37.3489     8.3877    19.5357 H            1 COA437   0.0000
    60 HCP1        37.0947     4.6558    15.7294 H            1 COA437   0.0000
    61 HCP2        38.5803     5.1383    16.2058 H            1 COA437   0.0000
    62 HDP1        38.3074     2.7947    12.7988 H            1 COA437   0.0000
    63 HDP2        36.9311     3.3764    13.4576 H            1 COA437   0.0000
    64 HDP3        37.9925     4.3963    12.7504 H            1 COA437   0.0000
    65 HEP1        38.9044     1.7043    15.0049 H            1 COA437   0.0000
    66 HEP2        38.9698     2.5976    16.3703 H            1 COA437   0.0000
    67 HEP3        37.5294     2.2854    15.6671 H            1 COA437   0.0000
    68 HAP         40.6721     3.9014    15.3057 H            1 COA437   0.0000
    69 H21         39.2779     5.8385    14.1095 H            1 COA437   0.0000
    70 H8P         41.7740     2.2333    14.5126 H            1 COA437   0.0000
    71 H7P1        42.7063     0.8445    12.9063 H            1 COA437   0.0000
    72 H7P2        42.8928     2.1854    11.9930 H            1 COA437   0.0000
    73 H6P1        41.4927     0.7708    10.7349 H            1 COA437   0.0000
    74 H6P2        40.5182     1.9366    11.3331 H            1 COA437   0.0000
    75 H3P         37.2115    -0.7203    11.1877 H            1 COA437   0.0000
    76 H2P1        37.1545    -1.5406    13.4172 H            1 COA437   0.0000
    77 H2P2        38.7478    -1.8694    13.2759 H            1 COA437   0.0000
    78 H1P         37.8602    -4.2142    12.7109 H            1 COA437   0.0000
@<TRIPOS>BOND
     1    1    2      ar
     2    1    6      ar
     3    2    3      ar
     4    3    4      ar
     5    4    5      ar
     6    4   10       1
     7    5    6      ar
     8    5    8       1
     9    6    7       1
    10    8    9       2
    11    9   10       1
    12   10   11       1
    13   11   12       1
    14   11   21       1
    15   12   13       1
    16   12   14       1
    17   14   15       1
    18   14   20       1
    19   15   16       1
    20   16   17      ar
    21   16   18      ar
    22   16   19      ar
    23   20   21       1
    24   20   22       1
    25   22   23       1
    26   23   24       1
    27   24   25      ar
    28   24   26      ar
    29   24   27       1
    30   27   28       1
    31   28   29      ar
    32   28   30      ar
    33   28   31       1
    34   31   33       1
    35   32   33       1
    36   32   34       1
    37   32   35       1
    38   32   36       1
    39   36   37       1
    40   36   38       1
    41   38   39       2
    42   38   40      am
    43   40   41       1
    44   41   42       1
    45   42   43       1
    46   43   44       2
    47   43   45       1
    48   45   46       2
    49   46   47       1
    50   47   48       1
    51    2   49       1
    52    7   50       1
    53    7   51       1
    54    9   52       1
    55   11   53       1
    56   12   54       1
    57   13   55       1
    58   14   56       1
    59   48   78       1
    60   47   77       1
    61   20   57       1
    62   22   58       1
    63   22   59       1
    64   47   76       1
    65   46   75       1
    66   33   60       1
    67   33   61       1
    68   34   62       1
    69   34   63       1
    70   34   64       1
    71   35   65       1
    72   35   66       1
    73   35   67       1
    74   36   68       1
    75   37   69       1
    76   40   70       1
    77   41   71       1
    78   41   72       1
    79   42   73       1
    80   42   74       1
@<TRIPOS>SUBSTRUCTURE
     1 COA437      1 GROUP             4 A     COA     0 **** COA A 437
