@<TRIPOS>MOLECULE
3mup_SMK_1_ligand
   78    81     1     0     0
SMALL
NO_CHARGES


@<TRIPOS>ATOM
     1 CAA         34.3140    -7.0650    10.3260 C.3          1 SMK600   0.0000
     2 CB          35.4390    -7.6400     9.4500 C.3          1 SMK600   0.0000
     3 CA          36.0510    -8.8800    10.0880 C.3          1 SMK600   0.0000
     4 N           37.1900    -9.4120     9.3020 N.4          1 SMK600   1.0000
     5 C           34.9670    -9.9370    10.2310 C.2          1 SMK600   0.0000
     6 O           34.2560   -10.2660     9.2730 O.2          1 SMK600   0.0000
     7 NAY         34.8830   -10.4570    11.4500 N.am         1 SMK600   0.0000
     8 CBI         33.8720   -11.4520    11.7730 C.3          1 SMK600   0.0000
     9 CBB         32.8710   -10.9070    12.7840 C.2          1 SMK600   0.0000
    10 OAF         33.0840    -9.8030    13.2990 O.2          1 SMK600   0.0000
    11 NBK         31.7380   -11.5520    13.0710 N.am         1 SMK600   0.0000
    12 CBF         34.4910   -12.7940    12.1560 C.3          1 SMK600   0.0000
    13 CAS         35.2550   -12.7660    13.4750 C.3          1 SMK600   0.0000
    14 CAQ         36.7330   -12.4520    13.2130 C.3          1 SMK600   0.0000
    15 NAB         37.0030   -12.5370    11.7660 N.4          1 SMK600   1.0000
    16 CAT         33.5340   -13.9830    12.0130 C.3          1 SMK600   0.0000
    17 CAU         32.3490   -13.9170    12.9720 C.3          1 SMK600   0.0000
    18 CBG         31.3010   -12.8670    12.5570 C.3          1 SMK600   0.0000
    19 CAV         29.9940   -13.1610    13.3210 C.3          1 SMK600   0.0000
    20 CAW         29.4710   -11.7740    13.6670 C.3          1 SMK600   0.0000
    21 CBJ         30.7480   -11.0170    14.0220 C.3          1 SMK600   0.0000
    22 CBA         31.1570   -11.2530    15.4960 C.2          1 SMK600   0.0000
    23 OAE         32.0410   -12.0610    15.8110 O.2          1 SMK600   0.0000
    24 NAX         30.4810   -10.5020    16.3750 N.am         1 SMK600   0.0000
    25 CBH         30.7100   -10.5930    17.8350 C.3          1 SMK600   0.0000
    26 CBC         29.7480   -11.6530    18.4110 C.ar         1 SMK600   0.0000
    27 CAM         30.2670   -12.8180    18.9770 C.ar         1 SMK600   0.0000
    28 CAI         29.4340   -13.8330    19.4520 C.ar         1 SMK600   0.0000
    29 CAG         28.0580   -13.7090    19.3070 C.ar         1 SMK600   0.0000
    30 CAJ         27.5400   -12.5550    18.7150 C.ar         1 SMK600   0.0000
    31 CAN         28.3760   -11.5500    18.2350 C.ar         1 SMK600   0.0000
    32 CBD         30.6880    -9.1920    18.4850 C.ar         1 SMK600   0.0000
    33 CAO         31.4460    -8.1730    17.8930 C.ar         1 SMK600   0.0000
    34 CAK         31.4650    -6.8850    18.4360 C.ar         1 SMK600   0.0000
    35 CAH         30.7500    -6.6010    19.6020 C.ar         1 SMK600   0.0000
    36 CAL         29.9940    -7.6210    20.2040 C.ar         1 SMK600   0.0000
    37 CAP         29.9590    -8.9090    19.6430 C.ar         1 SMK600   0.0000
    38 HAA1        33.9301    -6.2535     9.8854 H            1 SMK600   0.0000
    39 HAA2        33.5969    -7.7524    10.4413 H            1 SMK600   0.0000
    40 HAA3        34.6832    -6.8151    11.2211 H            1 SMK600   0.0000
    41 HB1         36.1505    -6.9467     9.3354 H            1 SMK600   0.0000
    42 HB2         35.0642    -7.8840     8.5556 H            1 SMK600   0.0000
    43 HA          36.3806    -8.6378    11.0005 H            1 SMK600   0.0000
    44 H7          37.8403    -9.8576     9.9172 H            1 SMK600   0.0000
    45 H8          36.8532   -10.0765     8.6349 H            1 SMK600   0.0000
    46 HAY         35.5248   -10.1600    12.1571 H            1 SMK600   0.0000
    47 HBI         33.3584   -11.6119    10.9300 H            1 SMK600   0.0000
    48 HBF         35.1937   -12.9530    11.4625 H            1 SMK600   0.0000
    49 HAS1        35.1792   -13.6576    13.9215 H            1 SMK600   0.0000
    50 HAS2        34.8662   -12.0616    14.0689 H            1 SMK600   0.0000
    51 HAQ1        37.3055   -13.1126    13.6985 H            1 SMK600   0.0000
    52 HAQ2        36.9406   -11.5291    13.5374 H            1 SMK600   0.0000
    53 HAB1        37.9666   -12.3324    11.5941 H            1 SMK600   0.0000
    54 HAB2        36.7952   -13.4599    11.4418 H            1 SMK600   0.0000
    55 HAT1        34.0430   -14.8246    12.1936 H            1 SMK600   0.0000
    56 HAT2        33.1846   -13.9993    11.0762 H            1 SMK600   0.0000
    57 HAU1        32.6887   -13.6860    13.8837 H            1 SMK600   0.0000
    58 HAU2        31.9088   -14.8145    12.9978 H            1 SMK600   0.0000
    59 HBG         31.1593   -12.8523    11.5672 H            1 SMK600   0.0000
    60 HAV1        30.1746   -13.6925    14.1486 H            1 SMK600   0.0000
    61 HAV2        29.3445   -13.6548    12.7429 H            1 SMK600   0.0000
    62 HAW1        28.8434   -11.8083    14.4448 H            1 SMK600   0.0000
    63 HAW2        29.0094   -11.3565    12.8843 H            1 SMK600   0.0000
    64 HBJ         30.6175   -10.0389    13.8598 H            1 SMK600   0.0000
    65 HAX         29.7975    -9.8570    16.0332 H            1 SMK600   0.0000
    66 HBH         31.6358   -10.9505    17.9575 H            1 SMK600   0.0000
    67 HAM         31.2586   -12.9286    19.0440 H            1 SMK600   0.0000
    68 HAI         29.8243   -14.6415    19.8924 H            1 SMK600   0.0000
    69 HAG         27.4472   -14.4355    19.6219 H            1 SMK600   0.0000
    70 HAJ         26.5490   -12.4483    18.6342 H            1 SMK600   0.0000
    71 HAN         27.9885   -10.7569    17.7651 H            1 SMK600   0.0000
    72 HAO         31.9805    -8.3698    17.0711 H            1 SMK600   0.0000
    73 HAK         31.9928    -6.1636    17.9877 H            1 SMK600   0.0000
    74 HAH         30.7758    -5.6850    20.0024 H            1 SMK600   0.0000
    75 HAL         29.4769    -7.4289    21.0381 H            1 SMK600   0.0000
    76 HAP         29.4105    -9.6255    20.0740 H            1 SMK600   0.0000
    77 H40         37.6447    -8.6607     8.8237 H            1 SMK600   0.0000
    78 HAB3        36.4303   -11.8764    11.2807 H            1 SMK600   0.0000
@<TRIPOS>BOND
     1    1    2       1
     2    2    3       1
     3    3    4       1
     4    3    5       1
     5    5    6       2
     6    5    7      am
     7    7    8       1
     8    8    9       1
     9    8   12       1
    10    9   10       2
    11    9   11      am
    12   11   18       1
    13   11   21       1
    14   12   13       1
    15   12   16       1
    16   13   14       1
    17   14   15       1
    18   16   17       1
    19   17   18       1
    20   18   19       1
    21   19   20       1
    22   20   21       1
    23   21   22       1
    24   22   23       2
    25   22   24      am
    26   24   25       1
    27   25   26       1
    28   25   32       1
    29   26   27      ar
    30   26   31      ar
    31   27   28      ar
    32   28   29      ar
    33   29   30      ar
    34   30   31      ar
    35   32   33      ar
    36   32   37      ar
    37   33   34      ar
    38   34   35      ar
    39   35   36      ar
    40   36   37      ar
    41    1   38       1
    42    1   39       1
    43    1   40       1
    44    2   41       1
    45    2   42       1
    46    3   43       1
    47    4   44       1
    48    4   45       1
    49    7   46       1
    50    8   47       1
    51   12   48       1
    52   13   49       1
    53   13   50       1
    54   14   51       1
    55   14   52       1
    56   15   53       1
    57   15   54       1
    58   16   55       1
    59   16   56       1
    60   17   57       1
    61   17   58       1
    62   18   59       1
    63   19   60       1
    64   19   61       1
    65   20   62       1
    66   20   63       1
    67   21   64       1
    68   24   65       1
    69   25   66       1
    70   27   67       1
    71   28   68       1
    72   29   69       1
    73   30   70       1
    74   31   71       1
    75   33   72       1
    76   34   73       1
    77   35   74       1
    78   36   75       1
    79   37   76       1
    80    4   77       1
    81   15   78       1
@<TRIPOS>SUBSTRUCTURE
     1 SMK600      1 GROUP             4 A     SMK     0 **** SMK A 600
