@<TRIPOS>MOLECULE
3bl7_DD1_1_ligand
   54    57     1     0     0
SMALL
NO_CHARGES


@<TRIPOS>ATOM
     1 F58          7.8920    -3.6710    17.4080 F            1 DD1901   0.0000
     2 C1           8.8480    -2.7290    17.4260 C.ar         1 DD1901   0.0000
     3 C6          10.1800    -3.1080    17.2790 C.ar         1 DD1901   0.0000
     4 C5          11.1830    -2.1440    17.2910 C.ar         1 DD1901   0.0000
     5 C4          10.8730    -0.7920    17.4470 C.ar         1 DD1901   0.0000
     6 C3           9.5500    -0.3640    17.6020 C.ar         1 DD1901   0.0000
     7 C2           8.5040    -1.2860    17.6170 C.ar         1 DD1901   0.0000
     8 C13          7.0700    -0.7960    17.7580 C.3          1 DD1901   0.0000
     9 N15          6.3590    -1.0270    19.0270 N.4          1 DD1901   1.0000
    10 C21          6.7170    -2.0790    19.9790 C.3          1 DD1901   0.0000
    11 C20          5.7510    -2.0080    21.1740 C.3          1 DD1901   0.0000
    12 C19          5.6670    -0.6070    21.7940 C.3          1 DD1901   0.0000
    13 C18          5.3660     0.4310    20.7050 C.3          1 DD1901   0.0000
    14 C17          5.2050    -0.1730    19.3120 C.3          1 DD1901   0.0000
    15 C28          4.6790    -0.5730    22.9800 C.3          1 DD1901   0.0000
    16 O30          3.5770     0.3710    22.9480 O.3          1 DD1901   0.0000
    17 C32          3.0010     0.8600    24.1070 C.ar         1 DD1901   0.0000
    18 C38          1.9820     1.9480    24.0660 C.ar         1 DD1901   0.0000
    19 C45          1.5010     2.5870    22.8130 C.ar         1 DD1901   0.0000
    20 N54          1.9620     2.2250    21.5980 N.pl3        1 DD1901   0.0000
    21 N46          0.5870     3.5620    22.9030 N.ar         1 DD1901   0.0000
    22 C47          0.0860     3.9740    24.0990 C.ar         1 DD1901   0.0000
    23 N56         -0.8390     4.9540    24.0940 N.pl3        1 DD1901   0.0000
    24 N48          0.4580     3.4310    25.2880 N.ar         1 DD1901   1.0000
    25 C37          1.3810     2.4480    25.3400 C.ar         1 DD1901   0.0000
    26 C36          1.7720     1.8950    26.5440 C.ar         1 DD1901   0.0000
    27 C35          2.7330     0.8840    26.5450 C.ar         1 DD1901   0.0000
    28 C34          3.3300     0.3840    25.3720 C.ar         1 DD1901   0.0000
    29 H1          10.4155    -4.0731    17.1648 H            1 DD1901   0.0000
    30 H2          12.1376    -2.4230    17.1866 H            1 DD1901   0.0000
    31 H3          11.6104    -0.1166    17.4480 H            1 DD1901   0.0000
    32 H4           9.3529     0.6112    17.7029 H            1 DD1901   0.0000
    33 H5           6.5364    -1.2397    17.0380 H            1 DD1901   0.0000
    34 H6           7.0812     0.1920    17.6038 H            1 DD1901   0.0000
    35 H7           7.6555    -1.9417    20.2957 H            1 DD1901   0.0000
    36 H8           6.6416    -2.9730    19.5374 H            1 DD1901   0.0000
    37 H9           6.0638    -2.6486    21.8752 H            1 DD1901   0.0000
    38 H10          4.8387    -2.2740    20.8626 H            1 DD1901   0.0000
    39 H11          6.5726    -0.3936    22.1604 H            1 DD1901   0.0000
    40 H12          6.1184     1.0892    20.6791 H            1 DD1901   0.0000
    41 H13          4.5179     0.9036    20.9446 H            1 DD1901   0.0000
    42 H14          4.3676    -0.7185    19.2778 H            1 DD1901   0.0000
    43 H15          5.1539     0.5592    18.6329 H            1 DD1901   0.0000
    44 H16          5.2132    -0.3728    23.8013 H            1 DD1901   0.0000
    45 H17          4.2804    -1.4870    23.0562 H            1 DD1901   0.0000
    46 H18          1.6151     2.6774    20.7764 H            1 DD1901   0.0000
    47 H19          2.6507     1.5043    21.5189 H            1 DD1901   0.0000
    48 H20         -1.2272     5.2796    24.9562 H            1 DD1901   0.0000
    49 H21         -1.1372     5.3556    23.2281 H            1 DD1901   0.0000
    50 H22          1.3717     2.2150    27.4027 H            1 DD1901   0.0000
    51 H23          3.0119     0.4948    27.4229 H            1 DD1901   0.0000
    52 H24          4.0155    -0.3397    25.4511 H            1 DD1901   0.0000
    53 H25          6.9642    -0.3831    19.4952 H            1 DD1901   0.0000
    54 H26          0.0427     3.7639    26.1346 H            1 DD1901   0.0000
@<TRIPOS>BOND
     1    1    2       1
     2    2    3      ar
     3    2    7      ar
     4    3    4      ar
     5    4    5      ar
     6    5    6      ar
     7    6    7      ar
     8    7    8       1
     9    8    9       1
    10    9   10       1
    11    9   14       1
    12   10   11       1
    13   11   12       1
    14   12   13       1
    15   12   15       1
    16   13   14       1
    17   15   16       1
    18   16   17       1
    19   17   18      ar
    20   17   28      ar
    21   18   19      ar
    22   18   25      ar
    23   19   20       1
    24   19   21      ar
    25   21   22      ar
    26   22   23       1
    27   22   24      ar
    28   24   25      ar
    29   25   26      ar
    30   26   27      ar
    31   27   28      ar
    32    3   29       1
    33    4   30       1
    34    5   31       1
    35    6   32       1
    36    8   33       1
    37    8   34       1
    38   10   35       1
    39   10   36       1
    40   11   37       1
    41   11   38       1
    42   12   39       1
    43   13   40       1
    44   13   41       1
    45   14   42       1
    46   14   43       1
    47   15   44       1
    48   15   45       1
    49   20   46       1
    50   20   47       1
    51   23   48       1
    52   23   49       1
    53   26   50       1
    54   27   51       1
    55   28   52       1
    56    9   53       1
    57   24   54       1
@<TRIPOS>SUBSTRUCTURE
     1 DD1901      1 GROUP             4 A     DD1     0 **** DD1 A 901
