@<TRIPOS>MOLECULE
4uaj_FAD_1_ligand
   84    89     1     0     0
SMALL
NO_CHARGES


@<TRIPOS>ATOM
     1 PA          81.0770   -19.3910   -17.6320 P.3          1 FAD501   0.0000
     2 O1A         79.9940   -19.2160   -18.6710 O.co2        1 FAD501   0.0000
     3 O2A         82.3960   -18.6690   -17.7720 O.co2        1 FAD501  -1.0000
     4 O5B         81.3710   -20.9600   -17.4500 O.3          1 FAD501   0.0000
     5 C5B         80.2890   -21.8690   -17.2640 C.3          1 FAD501   0.0000
     6 C4B         80.8280   -23.1170   -16.5820 C.3          1 FAD501   0.0000
     7 O4B         81.5510   -23.9020   -17.5310 O.3          1 FAD501   0.0000
     8 C3B         81.7910   -22.7560   -15.4600 C.3          1 FAD501   0.0000
     9 O3B         81.4180   -23.4380   -14.2600 O.3          1 FAD501   0.0000
    10 C2B         83.1460   -23.2470   -15.9220 C.3          1 FAD501   0.0000
    11 O2B         83.8620   -23.8430   -14.8410 O.3          1 FAD501   0.0000
    12 C1B         82.8170   -24.2750   -16.9890 C.3          1 FAD501   0.0000
    13 N9A         83.8560   -24.2970   -18.0460 N.pl3        1 FAD501   0.0000
    14 C8A         84.6460   -23.2710   -18.4150 C.2          1 FAD501   0.0000
    15 N7A         85.4940   -23.6430   -19.4090 N.2          1 FAD501   0.0000
    16 C5A         85.2500   -24.9390   -19.6840 C.ar         1 FAD501   0.0000
    17 C6A         85.7840   -25.9540   -20.6220 C.ar         1 FAD501   0.0000
    18 N6A         86.7770   -25.6500   -21.4910 N.pl3        1 FAD501   0.0000
    19 N1A         85.2460   -27.1940   -20.5800 N.ar         1 FAD501   0.0000
    20 C2A         84.2580   -27.5110   -19.7220 C.ar         1 FAD501   0.0000
    21 N3A         83.7270   -26.6410   -18.8450 N.ar         1 FAD501   0.0000
    22 C4A         84.1750   -25.3650   -18.7770 C.ar         1 FAD501   0.0000
    23 N1          73.0050   -17.8070   -12.2840 N.2          1 FAD501   0.0000
    24 C2          72.9140   -17.5790   -10.9490 C.2          1 FAD501   0.0000
    25 O2          73.8800   -17.8950   -10.2210 O.2          1 FAD501   0.0000
    26 N3          71.8290   -17.0280   -10.3770 N.pl3        1 FAD501   0.0000
    27 C4          70.7550   -16.6620   -11.0870 C.2          1 FAD501   0.0000
    28 O4          69.7600   -16.1530   -10.5280 O.2          1 FAD501   0.0000
    29 C4X         70.7730   -16.8770   -12.5540 C.2          1 FAD501   0.0000
    30 N5          69.7300   -16.5370   -13.3410 N.2          1 FAD501   0.0000
    31 C5X         69.7740   -16.7430   -14.6780 C.ar         1 FAD501   0.0000
    32 C6          68.6860   -16.3850   -15.4640 C.ar         1 FAD501   0.0000
    33 C7          68.7180   -16.5920   -16.8380 C.ar         1 FAD501   0.0000
    34 C7M         67.5360   -16.2000   -17.6840 C.3          1 FAD501   0.0000
    35 C8          69.9180   -17.2010   -17.4700 C.ar         1 FAD501   0.0000
    36 C8M         69.9520   -17.4260   -18.9590 C.3          1 FAD501   0.0000
    37 C9          71.0070   -17.5640   -16.6870 C.ar         1 FAD501   0.0000
    38 C9A         70.9760   -17.3560   -15.3130 C.ar         1 FAD501   0.0000
    39 N10         72.0740   -17.7200   -14.5080 N.pl3        1 FAD501   0.0000
    40 C10         71.9960   -17.4870   -13.1220 C.2          1 FAD501   0.0000
    41 C1'         73.2750   -18.3160   -15.0960 C.3          1 FAD501   0.0000
    42 C2'         74.3020   -17.2120   -15.3280 C.3          1 FAD501   0.0000
    43 O2'         73.8190   -16.2970   -16.3190 O.3          1 FAD501   0.0000
    44 C3'         75.6410   -17.7840   -15.7710 C.3          1 FAD501   0.0000
    45 O3'         75.4230   -18.8200   -16.7350 O.3          1 FAD501   0.0000
    46 C4'         76.3900   -18.3440   -14.5710 C.3          1 FAD501   0.0000
    47 O4'         76.4670   -17.3390   -13.5550 O.3          1 FAD501   0.0000
    48 C5'         77.8010   -18.7710   -14.9480 C.3          1 FAD501   0.0000
    49 O5'         78.3970   -17.7570   -15.7520 O.3          1 FAD501   0.0000
    50 P           79.9950   -17.5800   -15.7630 P.3          1 FAD501   0.0000
    51 O1P         80.3740   -16.6180   -16.8630 O.co2        1 FAD501   0.0000
    52 O2P         80.4780   -17.3480   -14.3530 O.co2        1 FAD501  -1.0000
    53 O3P         80.4540   -19.0610   -16.1860 O.3          1 FAD501   0.0000
    54 H5B1        79.8944   -22.1113   -18.1503 H            1 FAD501   0.0000
    55 H5B2        79.5868   -21.4466   -16.6908 H            1 FAD501   0.0000
    56 H4B         80.0683   -23.6524   -16.2129 H            1 FAD501   0.0000
    57 H3B         81.8059   -21.7670   -15.3131 H            1 FAD501   0.0000
    58 H5          82.1710   -24.0248   -13.9623 H            1 FAD501   0.0000
    59 H2B         83.6734   -22.4939   -16.3153 H            1 FAD501   0.0000
    60 H7          84.8440   -23.7176   -14.9822 H            1 FAD501   0.0000
    61 H1B         82.7474   -25.1804   -16.5703 H            1 FAD501   0.0000
    62 H8A         84.6129   -22.3568   -18.0111 H            1 FAD501   0.0000
    63 H6A1        87.1249   -26.3481   -22.1168 H            1 FAD501   0.0000
    64 H6A2        87.1624   -24.7274   -21.5069 H            1 FAD501   0.0000
    65 H2A         83.8995   -28.4444   -19.7378 H            1 FAD501   0.0000
    66 H13         71.8243   -16.8868    -9.3870 H            1 FAD501   0.0000
    67 H14         67.8774   -15.9772   -15.0400 H            1 FAD501   0.0000
    68 H7M1        67.7252   -16.4164   -18.6418 H            1 FAD501   0.0000
    69 H7M2        66.7275   -16.7049   -17.3816 H            1 FAD501   0.0000
    70 H7M3        67.3701   -15.2183   -17.5906 H            1 FAD501   0.0000
    71 H8M1        70.8257   -17.8404   -19.2136 H            1 FAD501   0.0000
    72 H8M2        69.2046   -18.0365   -19.2210 H            1 FAD501   0.0000
    73 H8M3        69.8482   -16.5505   -19.4309 H            1 FAD501   0.0000
    74 H21         71.8134   -17.9751   -17.1122 H            1 FAD501   0.0000
    75 H1'1        73.0441   -18.7498   -15.9669 H            1 FAD501   0.0000
    76 H1'2        73.6515   -19.0007   -14.4720 H            1 FAD501   0.0000
    77 H2'         74.4350   -16.7140   -14.4711 H            1 FAD501   0.0000
    78 H25         73.3021   -15.5658   -15.8738 H            1 FAD501   0.0000
    79 H3'         76.1864   -17.0571   -16.1882 H            1 FAD501   0.0000
    80 H27         76.1996   -18.8590   -17.3638 H            1 FAD501   0.0000
    81 H4'         75.8926   -19.1344   -14.2135 H            1 FAD501   0.0000
    82 H29         76.4884   -17.7753   -12.6555 H            1 FAD501   0.0000
    83 H5'1        77.7652   -19.6279   -15.4622 H            1 FAD501   0.0000
    84 H5'2        78.3438   -18.9025   -14.1185 H            1 FAD501   0.0000
@<TRIPOS>BOND
     1    1    2      ar
     2    1    3      ar
     3    1    4       1
     4    1   53       1
     5    4    5       1
     6    5    6       1
     7    6    7       1
     8    6    8       1
     9    7   12       1
    10    8    9       1
    11    8   10       1
    12   10   11       1
    13   10   12       1
    14   12   13       1
    15   13   14       1
    16   13   22       1
    17   14   15       2
    18   15   16       1
    19   16   17      ar
    20   16   22      ar
    21   17   18       1
    22   17   19      ar
    23   19   20      ar
    24   20   21      ar
    25   21   22      ar
    26   23   24       1
    27   23   40       2
    28   24   25       2
    29   24   26       1
    30   26   27       1
    31   27   28       2
    32   27   29       1
    33   29   30       2
    34   29   40       1
    35   30   31       1
    36   31   32      ar
    37   31   38      ar
    38   32   33      ar
    39   33   34       1
    40   33   35      ar
    41   35   36       1
    42   35   37      ar
    43   37   38      ar
    44   38   39       1
    45   39   40       1
    46   39   41       1
    47   41   42       1
    48   42   43       1
    49   42   44       1
    50   44   45       1
    51   44   46       1
    52   46   47       1
    53   46   48       1
    54   48   49       1
    55   49   50       1
    56   50   51      ar
    57   50   52      ar
    58   50   53       1
    59   48   84       1
    60    5   54       1
    61    5   55       1
    62    6   56       1
    63    8   57       1
    64    9   58       1
    65   10   59       1
    66   11   60       1
    67   12   61       1
    68   14   62       1
    69   18   63       1
    70   18   64       1
    71   20   65       1
    72   26   66       1
    73   32   67       1
    74   34   68       1
    75   34   69       1
    76   34   70       1
    77   36   71       1
    78   36   72       1
    79   36   73       1
    80   37   74       1
    81   41   75       1
    82   41   76       1
    83   42   77       1
    84   43   78       1
    85   44   79       1
    86   45   80       1
    87   46   81       1
    88   47   82       1
    89   48   83       1
@<TRIPOS>SUBSTRUCTURE
     1 FAD501      1 GROUP             4 A     FAD     0 **** FAD A 501
