@<TRIPOS>MOLECULE
4tm4_FDA_4_ligand
   84    89     1     0     0
SMALL
NO_CHARGES


@<TRIPOS>ATOM
     1 PA          42.9690   -17.2360    -5.7650 P.3          1 FDA501   0.0000
     2 O1A         43.2950   -15.8180    -6.3900 O.co2        1 FDA501   0.0000
     3 O2A         42.7650   -18.3430    -6.7940 O.co2        1 FDA501  -1.0000
     4 O5B         44.1730   -17.7200    -4.7640 O.3          1 FDA501   0.0000
     5 C5B         44.0880   -17.6360    -3.3820 C.3          1 FDA501   0.0000
     6 C4B         45.4190   -17.8340    -2.6600 C.3          1 FDA501   0.0000
     7 O4B         45.4090   -18.7050    -1.4930 O.3          1 FDA501   0.0000
     8 C3B         46.4870   -18.3650    -3.5660 C.3          1 FDA501   0.0000
     9 O3B         47.4410   -17.2710    -3.8030 O.3          1 FDA501   0.0000
    10 C2B         47.0270   -19.5060    -2.9030 C.3          1 FDA501   0.0000
    11 O2B         48.3230   -19.5200    -2.9650 O.3          1 FDA501   0.0000
    12 C1B         46.6420   -19.2870    -1.4420 C.3          1 FDA501   0.0000
    13 N9A         46.5880   -20.4540    -0.6420 N.pl3        1 FDA501   0.0000
    14 C8A         46.0900   -21.6620    -0.9660 C.2          1 FDA501   0.0000
    15 N7A         46.2340   -22.4960     0.0880 N.2          1 FDA501   0.0000
    16 C5A         46.8170   -21.7980     1.0910 C.ar         1 FDA501   0.0000
    17 C6A         47.2190   -22.0900     2.4090 C.ar         1 FDA501   0.0000
    18 N6A         47.0070   -23.4420     2.9610 N.pl3        1 FDA501   0.0000
    19 N1A         47.7890   -21.1480     3.1630 N.ar         1 FDA501   0.0000
    20 C2A         47.9890   -19.9010     2.6590 C.ar         1 FDA501   0.0000
    21 N3A         47.6250   -19.5670     1.4020 N.ar         1 FDA501   0.0000
    22 C4A         47.0420   -20.5010     0.6210 C.ar         1 FDA501   0.0000
    23 N1          37.1240   -14.8560   -12.7540 N.2          1 FDA501   0.0000
    24 C2          36.4590   -13.6540   -13.1880 C.2          1 FDA501   0.0000
    25 O2          35.3010   -13.3670   -12.7620 O.2          1 FDA501   0.0000
    26 N3          37.1070   -12.7580   -14.0990 N.pl3        1 FDA501   0.0000
    27 C4          38.4000   -13.0390   -14.5950 C.2          1 FDA501   0.0000
    28 O4          38.9380   -12.2740   -15.3870 O.2          1 FDA501   0.0000
    29 C4X         39.0850   -14.2640   -14.1560 C.2          1 FDA501   0.0000
    30 N5          40.3400   -14.5570   -14.6240 N.2          1 FDA501   0.0000
    31 C5X         40.7890   -15.8140   -14.4660 C.ar         1 FDA501   0.0000
    32 C6          41.8980   -16.2260   -15.2080 C.ar         1 FDA501   0.0000
    33 C7          42.3550   -17.5140   -15.0780 C.ar         1 FDA501   0.0000
    34 C7M         43.5730   -17.9210   -15.9100 C.3          1 FDA501   0.0000
    35 C8          41.7190   -18.3970   -14.1830 C.ar         1 FDA501   0.0000
    36 C8M         42.1820   -19.8290   -13.9760 C.3          1 FDA501   0.0000
    37 C9          40.6320   -17.9710   -13.4500 C.ar         1 FDA501   0.0000
    38 C9A         40.1640   -16.6810   -13.5930 C.ar         1 FDA501   0.0000
    39 N10         39.1100   -16.2750   -12.8810 N.pl3        1 FDA501   0.0000
    40 C10         38.4460   -15.1420   -13.2530 C.2          1 FDA501   0.0000
    41 C1'         38.6280   -17.0600   -11.6770 C.3          1 FDA501   0.0000
    42 C2'         39.3930   -16.9590   -10.4090 C.3          1 FDA501   0.0000
    43 O2'         38.7600   -17.8360    -9.5740 O.3          1 FDA501   0.0000
    44 C3'         39.4320   -15.5570    -9.8200 C.3          1 FDA501   0.0000
    45 O3'         39.8670   -14.7540   -10.8010 O.3          1 FDA501   0.0000
    46 C4'         40.3220   -15.4280    -8.5630 C.3          1 FDA501   0.0000
    47 O4'         41.4860   -16.1160    -8.7180 O.3          1 FDA501   0.0000
    48 C5'         39.6410   -15.7860    -7.2390 C.3          1 FDA501   0.0000
    49 O5'         40.3520   -15.2710    -6.0920 O.3          1 FDA501   0.0000
    50 P           40.5520   -16.0900    -4.8040 P.3          1 FDA501   0.0000
    51 O1P         39.1970   -16.6970    -4.4420 O.co2        1 FDA501   0.0000
    52 O2P         40.8940   -15.0210    -3.6850 O.co2        1 FDA501  -1.0000
    53 O3P         41.6840   -17.1990    -4.8920 O.3          1 FDA501   0.0000
    54 H5B1        43.4510   -18.3381    -3.0637 H            1 FDA501   0.0000
    55 H5B2        43.7335   -16.7317    -3.1440 H            1 FDA501   0.0000
    56 H4B         45.7203   -16.9324    -2.3496 H            1 FDA501   0.0000
    57 H3B         46.0787   -18.6458    -4.4346 H            1 FDA501   0.0000
    58 H5          47.8336   -16.9765    -2.9317 H            1 FDA501   0.0000
    59 H2B         46.6357   -20.3542    -3.2600 H            1 FDA501   0.0000
    60 H7          48.6865   -18.6973    -2.5279 H            1 FDA501   0.0000
    61 H1B         47.2869   -18.6427    -1.0308 H            1 FDA501   0.0000
    62 H8A         45.6795   -21.9036    -1.8453 H            1 FDA501   0.0000
    63 H6A1        47.2920   -23.6504     3.8966 H            1 FDA501   0.0000
    64 H6A2        46.5783   -24.1498     2.3995 H            1 FDA501   0.0000
    65 H2A         48.4196   -19.2086     3.2380 H            1 FDA501   0.0000
    66 H13         36.6383   -11.9231   -14.3875 H            1 FDA501   0.0000
    67 H14         42.3551   -15.5886   -15.8284 H            1 FDA501   0.0000
    68 H7M1        43.8004   -18.8766   -15.7227 H            1 FDA501   0.0000
    69 H7M2        43.3642   -17.8124   -16.8819 H            1 FDA501   0.0000
    70 H7M3        44.3504   -17.3400   -15.6691 H            1 FDA501   0.0000
    71 H8M1        41.5938   -20.2753   -13.3015 H            1 FDA501   0.0000
    72 H8M2        42.1305   -20.3246   -14.8430 H            1 FDA501   0.0000
    73 H8M3        43.1264   -19.8297   -13.6472 H            1 FDA501   0.0000
    74 H21         40.1821   -18.5978   -12.8138 H            1 FDA501   0.0000
    75 H1'1        38.6183   -18.0250   -11.9391 H            1 FDA501   0.0000
    76 H1'2        37.6947   -16.7580   -11.4828 H            1 FDA501   0.0000
    77 H2'         40.3290   -17.2741   -10.5657 H            1 FDA501   0.0000
    78 H25         37.8054   -17.5600    -9.4623 H            1 FDA501   0.0000
    79 H3'         38.4998   -15.2876    -9.5785 H            1 FDA501   0.0000
    80 H27         40.0383   -15.2957   -11.6239 H            1 FDA501   0.0000
    81 H4'         40.5741   -14.4626    -8.4962 H            1 FDA501   0.0000
    82 H29         42.2098   -15.6692    -8.1922 H            1 FDA501   0.0000
    83 H5'1        39.5903   -16.7819    -7.1638 H            1 FDA501   0.0000
    84 H5'2        38.7167   -15.4044    -7.2408 H            1 FDA501   0.0000
@<TRIPOS>BOND
     1    1    2      ar
     2    1    3      ar
     3    1    4       1
     4    1   53       1
     5    4    5       1
     6    5    6       1
     7    6    7       1
     8    6    8       1
     9    7   12       1
    10    8    9       1
    11    8   10       1
    12   10   11       1
    13   10   12       1
    14   12   13       1
    15   13   14       1
    16   13   22       1
    17   14   15       2
    18   15   16       1
    19   16   17      ar
    20   16   22      ar
    21   17   18       1
    22   17   19      ar
    23   19   20      ar
    24   20   21      ar
    25   21   22      ar
    26   23   24       1
    27   23   40       2
    28   24   25       2
    29   24   26       1
    30   26   27       1
    31   27   28       2
    32   27   29       1
    33   29   30       2
    34   29   40       1
    35   30   31       1
    36   31   32      ar
    37   31   38      ar
    38   32   33      ar
    39   33   34       1
    40   33   35      ar
    41   35   36       1
    42   35   37      ar
    43   37   38      ar
    44   38   39       1
    45   39   40       1
    46   39   41       1
    47   41   42       1
    48   42   43       1
    49   42   44       1
    50   44   45       1
    51   44   46       1
    52   46   47       1
    53   46   48       1
    54   48   49       1
    55   49   50       1
    56   50   51      ar
    57   50   52      ar
    58   50   53       1
    59   48   84       1
    60    5   54       1
    61    5   55       1
    62    6   56       1
    63    8   57       1
    64    9   58       1
    65   10   59       1
    66   11   60       1
    67   12   61       1
    68   14   62       1
    69   18   63       1
    70   18   64       1
    71   20   65       1
    72   26   66       1
    73   32   67       1
    74   34   68       1
    75   34   69       1
    76   34   70       1
    77   36   71       1
    78   36   72       1
    79   36   73       1
    80   37   74       1
    81   41   75       1
    82   41   76       1
    83   42   77       1
    84   43   78       1
    85   44   79       1
    86   45   80       1
    87   46   81       1
    88   47   82       1
    89   48   83       1
@<TRIPOS>SUBSTRUCTURE
     1 FDA501      1 GROUP             4 D     FDA     0 **** FDA D 501
