@<TRIPOS>MOLECULE
3k13_THH_2_ligand
   56    58     1     0     0
SMALL
NO_CHARGES


@<TRIPOS>ATOM
     1 OE1         92.8340    24.8310    12.1540 O.co2        1 THH643   0.0000
     2 CD          93.8470    24.9060    12.9060 C.2          1 THH643   0.0000
     3 OE2         94.8160    24.1040    12.8980 O.co2        1 THH643  -1.0000
     4 CG          93.9490    26.1000    13.9270 C.3          1 THH643   0.0000
     5 CB          92.9920    27.2230    13.5310 C.3          1 THH643   0.0000
     6 CA          93.0100    28.4440    14.4970 C.3          1 THH643   0.0000
     7 CT          92.4880    29.6270    13.6540 C.2          1 THH643   0.0000
     8 O1          91.2560    29.8590    13.6120 O.co2        1 THH643   0.0000
     9 O2          93.3500    30.3030    13.0610 O.co2        1 THH643  -1.0000
    10 N           92.1900    28.2630    15.7290 N.am         1 THH643   0.0000
    11 C           92.0370    29.2520    16.5970 C.2          1 THH643   0.0000
    12 O           92.5820    30.3490    16.4490 O.2          1 THH643   0.0000
    13 C12         91.1690    29.0010    17.8470 C.ar         1 THH643   0.0000
    14 C13         90.8930    27.7170    18.3250 C.ar         1 THH643   0.0000
    15 C14         90.0930    27.5470    19.4610 C.ar         1 THH643   0.0000
    16 C15         89.5670    28.6350    20.1520 C.ar         1 THH643   0.0000
    17 C16         89.8390    29.9270    19.6690 C.ar         1 THH643   0.0000
    18 C17         90.6410    30.0960    18.5250 C.ar         1 THH643   0.0000
    19 N10         88.8190    28.4380    21.2710 N.pl3        1 THH643   0.0000
    20 C9          88.2990    29.5630    22.0160 C.3          1 THH643   0.0000
    21 C6          87.0640    30.1600    21.2470 C.3          1 THH643   0.0000
    22 C7          85.8720    29.1630    21.3290 C.3          1 THH643   0.0000
    23 N8          85.3270    29.0820    22.7230 N.pl3        1 THH643   0.0000
    24 C8A         85.4720    30.1680    23.5760 C.2          1 THH643   0.0000
    25 N1          84.9700    30.0790    24.8250 N.2          1 THH643   0.0000
    26 C4A         86.1660    31.3120    23.1420 C.2          1 THH643   0.0000
    27 N5          86.6810    31.4320    21.8610 N.pl3        1 THH643   0.0000
    28 C11         85.7790    32.2050    20.9210 C.3          1 THH643   0.0000
    29 C4          86.3100    32.3400    24.0850 C.2          1 THH643   0.0000
    30 O4          86.9500    33.4840    23.7780 O.2          1 THH643   0.0000
    31 N3          85.8100    32.2190    25.3440 N.pl3        1 THH643   0.0000
    32 C2          85.1390    31.1050    25.7030 C.2          1 THH643   0.0000
    33 NA2         84.6460    31.0400    26.9510 N.pl3        1 THH643   0.0000
    34 HG1         94.8853    26.4511    13.9308 H            1 THH643   0.0000
    35 HG2         93.7121    25.7725    14.8417 H            1 THH643   0.0000
    36 HB1         92.0636    26.8520    13.5111 H            1 THH643   0.0000
    37 HB2         93.2431    27.5419    12.6171 H            1 THH643   0.0000
    38 HA          93.9556    28.6304    14.7635 H            1 THH643   0.0000
    39 H6          91.7492    27.3824    15.9026 H            1 THH643   0.0000
    40 H7          91.2678    26.9181    17.8545 H            1 THH643   0.0000
    41 H8          89.8945    26.6216    19.7840 H            1 THH643   0.0000
    42 H9          89.4626    30.7258    20.1383 H            1 THH643   0.0000
    43 H10         90.8350    31.0192    18.1933 H            1 THH643   0.0000
    44 H11         88.6270    27.5069    21.5812 H            1 THH643   0.0000
    45 H12         89.0081    30.2624    22.1055 H            1 THH643   0.0000
    46 H13         88.0132    29.2598    22.9251 H            1 THH643   0.0000
    47 H14         87.3080    30.3113    20.2891 H            1 THH643   0.0000
    48 H15         86.1857    28.2559    21.0483 H            1 THH643   0.0000
    49 H16         85.1469    29.4703    20.7128 H            1 THH643   0.0000
    50 H17         84.8631    28.2532    23.0359 H            1 THH643   0.0000
    51 H18         85.5205    33.0728    21.3454 H            1 THH643   0.0000
    52 H19         86.2644    32.3840    20.0652 H            1 THH643   0.0000
    53 H20         84.9566    31.6685    20.7318 H            1 THH643   0.0000
    54 HA21        84.7803    31.8040    27.5821 H            1 THH643   0.0000
    55 HA22        84.1448    30.2276    27.2489 H            1 THH643   0.0000
    56 H23         85.9401    32.9577    26.0054 H            1 THH643   0.0000
@<TRIPOS>BOND
     1    1    2      ar
     2    2    3      ar
     3    2    4       1
     4    4    5       1
     5    5    6       1
     6    6    7       1
     7    6   10       1
     8    7    8      ar
     9    7    9      ar
    10   10   11      am
    11   11   12       2
    12   11   13       1
    13   13   14      ar
    14   13   18      ar
    15   14   15      ar
    16   15   16      ar
    17   16   17      ar
    18   16   19       1
    19   17   18      ar
    20   19   20       1
    21   20   21       1
    22   21   22       1
    23   21   27       1
    24   22   23       1
    25   23   24       1
    26   24   25       1
    27   24   26       2
    28   25   32       2
    29   26   27       1
    30   26   29       1
    31   27   28       1
    32   29   30       2
    33   29   31       1
    34   31   32       1
    35   32   33       1
    36   33   55       1
    37    4   34       1
    38    4   35       1
    39    5   36       1
    40    5   37       1
    41    6   38       1
    42   33   54       1
    43   10   39       1
    44   14   40       1
    45   15   41       1
    46   17   42       1
    47   18   43       1
    48   19   44       1
    49   20   45       1
    50   20   46       1
    51   21   47       1
    52   22   48       1
    53   22   49       1
    54   23   50       1
    55   28   53       1
    56   28   51       1
    57   28   52       1
    58   31   56       1
@<TRIPOS>SUBSTRUCTURE
     1 THH643      1 GROUP             4 B     THH     0 **** THH B 643
