@<TRIPOS>MOLECULE
3znc_BZ1_1_ligand
   44    45     1     0     0
SMALL
NO_CHARGES


@<TRIPOS>ATOM
     1 C3           0.6630    37.8550    22.0150 C.3          1 BZ1500   0.0000
     2 C9           3.8590    35.6170    18.6050 C.2          1 BZ1500   0.0000
     3 C10          4.7060    35.8980    19.8680 C.2          1 BZ1500   0.0000
     4 C11          2.3400    35.3690    18.6830 C.3          1 BZ1500   0.0000
     5 C12          1.9010    35.0770    20.1330 C.3          1 BZ1500   0.0000
     6 S1           7.3100    35.9950    16.7560 S.o2         1 BZ1500   0.0000
     7 C4           1.0710    39.0800    22.8340 C.3          1 BZ1500   0.0000
     8 C5           3.2840    32.3460    17.4210 C.3          1 BZ1500   0.0000
     9 C6           2.1310    32.8140    18.3230 C.3          1 BZ1500   0.0000
    10 S2           6.4210    36.2290    19.4930 S.3          1 BZ1500   0.0000
    11 N2           7.1250    34.9090    15.5060 N.3          1 BZ1500  -1.0000
    12 O3           7.5270    37.3600    15.9770 O.2          1 BZ1500   0.0000
    13 O4           8.5510    35.4710    17.5840 O.2          1 BZ1500   0.0000
    14 C7           5.9270    35.8850    17.8310 C.2          1 BZ1500   0.0000
    15 C8           4.6580    35.6100    17.5270 C.2          1 BZ1500   0.0000
    16 S3           3.9340    35.9460    21.4910 S.o2         1 BZ1500   0.0000
    17 O2           4.4310    37.2230    22.2880 O.2          1 BZ1500   0.0000
    18 O5           4.2010    34.6370    22.3620 O.2          1 BZ1500   0.0000
    19 N3           2.2460    36.0870    21.1820 N.3          1 BZ1500   0.0000
    20 N1           1.7690    34.2050    17.9020 N.4          1 BZ1500   1.0000
    21 C2           1.7530    37.4810    21.0310 C.3          1 BZ1500   0.0000
    22 O1           1.3040    38.6950    24.2040 O.3          1 BZ1500   0.0000
    23 C1           0.2150    38.2580    25.0580 C.3          1 BZ1500   0.0000
    24 H1          -0.1765    38.0611    21.5122 H            1 BZ1500   0.0000
    25 H2           0.5010    37.0859    22.6333 H            1 BZ1500   0.0000
    26 H3           1.8751    36.2013    18.3811 H            1 BZ1500   0.0000
    27 H4           2.3209    34.2106    20.4033 H            1 BZ1500   0.0000
    28 H5           0.9059    34.9783    20.1295 H            1 BZ1500   0.0000
    29 H6           0.3394    39.7609    22.8002 H            1 BZ1500   0.0000
    30 H7           1.9083    39.4711    22.4519 H            1 BZ1500   0.0000
    31 H8           3.5511    31.4169    17.6766 H            1 BZ1500   0.0000
    32 H9           2.9859    32.3565    16.4665 H            1 BZ1500   0.0000
    33 H10          4.0652    32.9601    17.5330 H            1 BZ1500   0.0000
    34 H11          2.4227    32.8114    19.2795 H            1 BZ1500   0.0000
    35 H12          1.3434    32.2078    18.2131 H            1 BZ1500   0.0000
    36 H13          6.7176    35.3726    14.7192 H            1 BZ1500   0.0000
    37 H14          4.3376    35.4198    16.5990 H            1 BZ1500   0.0000
    38 H15          2.0657    34.3126    16.9531 H            1 BZ1500   0.0000
    39 H16          2.5240    38.1040    21.1630 H            1 BZ1500   0.0000
    40 H17          1.3920    37.5890    20.1047 H            1 BZ1500   0.0000
    41 H18          0.5717    38.0353    25.9653 H            1 BZ1500   0.0000
    42 H19         -0.4616    38.9901    25.1363 H            1 BZ1500   0.0000
    43 H20         -0.2154    37.4474    24.6609 H            1 BZ1500   0.0000
    44 H21          0.7728    34.2779    17.9501 H            1 BZ1500   0.0000
@<TRIPOS>BOND
     1    1    7       1
     2    1   21       1
     3    2    3       2
     4    2    4       1
     5    2   15       1
     6    3   10       1
     7    3   16       1
     8    4    5       1
     9    4   20       1
    10    5   19       1
    11    6   11       1
    12    6   12       2
    13    6   13       2
    14    6   14       1
    15    7   22       1
    16    8    9       1
    17    9   20       1
    18   10   14       1
    19   14   15       2
    20   16   17       2
    21   16   18       2
    22   16   19       1
    23   19   21       1
    24   22   23       1
    25    1   24       1
    26    1   25       1
    27    4   26       1
    28    5   27       1
    29    5   28       1
    30    7   29       1
    31    7   30       1
    32    8   31       1
    33    8   32       1
    34    8   33       1
    35    9   34       1
    36    9   35       1
    37   20   44       1
    38   11   36       1
    39   15   37       1
    40   20   38       1
    41   21   39       1
    42   21   40       1
    43   23   41       1
    44   23   42       1
    45   23   43       1
@<TRIPOS>SUBSTRUCTURE
     1 BZ1500      1 GROUP             4 A     BZ1     0 **** BZ1 A 500
