@<TRIPOS>MOLECULE
3cge_NDP_3_ligand
   73    77     1     0     0
SMALL
NO_CHARGES


@<TRIPOS>ATOM
     1 PA          48.5880    34.7750    23.2600 P.3          1 NDP803   0.0000
     2 O1A         48.4850    35.1870    24.6790 O.co2        1 NDP803   0.0000
     3 O2A         49.9340    34.3210    22.8560 O.co2        1 NDP803  -1.0000
     4 O5B         47.5140    33.6070    22.9840 O.3          1 NDP803   0.0000
     5 C5B         47.3890    33.0510    21.6990 C.3          1 NDP803   0.0000
     6 C4B         47.0380    31.5820    21.8200 C.3          1 NDP803   0.0000
     7 O4B         46.4930    31.1390    20.5890 O.3          1 NDP803   0.0000
     8 C3B         48.2740    30.7400    22.1010 C.3          1 NDP803   0.0000
     9 O3B         47.9470    29.7240    23.0200 O.3          1 NDP803   0.0000
    10 C2B         48.5780    30.1390    20.7490 C.3          1 NDP803   0.0000
    11 O2B         49.2760    28.9220    20.8270 O.3          1 NDP803   0.0000
    12 C1B         47.1800    29.9730    20.1880 C.3          1 NDP803   0.0000
    13 N9A         47.1330    29.7940    18.7300 N.pl3        1 NDP803   0.0000
    14 C8A         48.0400    30.2110    17.7930 C.2          1 NDP803   0.0000
    15 N7A         47.5920    29.8250    16.5810 N.2          1 NDP803   0.0000
    16 C5A         46.4200    29.1670    16.7290 C.ar         1 NDP803   0.0000
    17 C6A         45.5480    28.5640    15.8220 C.ar         1 NDP803   0.0000
    18 N6A         45.8200    28.5750    14.5170 N.pl3        1 NDP803   0.0000
    19 N1A         44.3940    27.9540    16.2890 N.ar         1 NDP803   0.0000
    20 C2A         44.1130    27.9410    17.6440 C.ar         1 NDP803   0.0000
    21 N3A         44.9860    28.5360    18.5380 N.ar         1 NDP803   0.0000
    22 C4A         46.1200    29.1380    18.0830 C.ar         1 NDP803   0.0000
    23 O3          48.1270    35.9740    22.2950 O.3          1 NDP803   0.0000
    24 PN          46.8050    36.8510    22.5540 P.3          1 NDP803   0.0000
    25 O1N         45.8800    36.1210    23.4510 O.co2        1 NDP803   0.0000
    26 O2N         46.3540    37.2960    21.2150 O.co2        1 NDP803  -1.0000
    27 O5D         47.3660    38.1160    23.3850 O.3          1 NDP803   0.0000
    28 C5D         48.4510    38.8490    22.8670 C.3          1 NDP803   0.0000
    29 C4D         48.9890    39.8550    23.8770 C.3          1 NDP803   0.0000
    30 O4D         47.9560    40.6590    24.4080 O.3          1 NDP803   0.0000
    31 C3D         49.6570    39.2310    25.0890 C.3          1 NDP803   0.0000
    32 O3D         50.9880    38.8600    24.8190 O.3          1 NDP803   0.0000
    33 C2D         49.5850    40.3670    26.0790 C.3          1 NDP803   0.0000
    34 O2D         50.6090    41.2980    25.8370 O.3          1 NDP803   0.0000
    35 C1D         48.2950    41.0730    25.7230 C.3          1 NDP803   0.0000
    36 N1N         47.2280    40.8060    26.7160 N.ar         1 NDP803   1.0000
    37 C2N         47.5300    40.6710    28.0550 C.ar         1 NDP803   0.0000
    38 C3N         46.5500    40.4390    29.0230 C.ar         1 NDP803   0.0000
    39 C7N         46.9380    40.3000    30.4740 C.2          1 NDP803   0.0000
    40 O7N         48.2920    40.1360    30.8180 O.2          1 NDP803   0.0000
    41 N7N         45.9960    40.3430    31.4190 N.am         1 NDP803   0.0000
    42 C4N         45.0870    40.3330    28.6370 C.ar         1 NDP803   0.0000
    43 C5N         44.8760    40.4980    27.1600 C.ar         1 NDP803   0.0000
    44 C6N         45.9320    40.7250    26.2830 C.ar         1 NDP803   0.0000
    45 P2B         50.7870    28.8300    20.2670 P.3          1 NDP803   0.0000
    46 O1X         50.9860    29.8700    19.1950 O.co2        1 NDP803   0.0000
    47 O2X         51.7470    29.0320    21.4130 O.co2        1 NDP803  -1.0000
    48 O3X         51.0250    27.4770    19.6390 O.co2        1 NDP803  -1.0000
    49 H5B1        48.2545    33.1481    21.2075 H            1 NDP803   0.0000
    50 H5B2        46.6660    33.5269    21.1982 H            1 NDP803   0.0000
    51 H4B         46.3684    31.4538    22.5516 H            1 NDP803   0.0000
    52 H3B         49.0326    31.3019    22.4309 H            1 NDP803   0.0000
    53 H5          46.9865    29.4695    22.9077 H            1 NDP803   0.0000
    54 H2B         49.0928    30.7921    20.1936 H            1 NDP803   0.0000
    55 H1B         46.7509    29.1814    20.6231 H            1 NDP803   0.0000
    56 H8A         48.8854    30.7131    17.9752 H            1 NDP803   0.0000
    57 H6A1        45.1913    28.1412    13.8715 H            1 NDP803   0.0000
    58 H6A2        46.6527    29.0170    14.1835 H            1 NDP803   0.0000
    59 H2A         43.2789    27.5015    17.9773 H            1 NDP803   0.0000
    60 H5D1        48.1489    39.3405    22.0502 H            1 NDP803   0.0000
    61 H5D2        49.1832    38.2135    22.6218 H            1 NDP803   0.0000
    62 H4D         49.6505    40.4472    23.4169 H            1 NDP803   0.0000
    63 H3D         49.1315    38.4453    25.4154 H            1 NDP803   0.0000
    64 H16         51.0095    37.9201    24.4782 H            1 NDP803   0.0000
    65 H2D         49.5875    40.0424    27.0249 H            1 NDP803   0.0000
    66 H18         51.4972    40.8470    25.9249 H            1 NDP803   0.0000
    67 H1D         48.4699    42.0575    25.7070 H            1 NDP803   0.0000
    68 H2N         48.4849    40.7418    28.3432 H            1 NDP803   0.0000
    69 H7N1        46.2493    40.2512    32.3820 H            1 NDP803   0.0000
    70 H7N2        45.0371    40.4670    31.1638 H            1 NDP803   0.0000
    71 H4N         44.3481    40.1718    29.2912 H            1 NDP803   0.0000
    72 H5N         43.9467    40.4430    26.7947 H            1 NDP803   0.0000
    73 H6N         45.7385    40.8321    25.3078 H            1 NDP803   0.0000
@<TRIPOS>BOND
     1    1    2      ar
     2    1    3      ar
     3    1    4       1
     4    1   23       1
     5    4    5       1
     6    5    6       1
     7    6    7       1
     8    6    8       1
     9    7   12       1
    10    8    9       1
    11    8   10       1
    12   10   11       1
    13   10   12       1
    14   11   45       1
    15   12   13       1
    16   13   14       1
    17   13   22       1
    18   14   15       2
    19   15   16       1
    20   16   17      ar
    21   16   22      ar
    22   17   18       1
    23   17   19      ar
    24   19   20      ar
    25   20   21      ar
    26   21   22      ar
    27   23   24       1
    28   24   25      ar
    29   24   26      ar
    30   24   27       1
    31   27   28       1
    32   28   29       1
    33   29   30       1
    34   29   31       1
    35   30   35       1
    36   31   32       1
    37   31   33       1
    38   33   34       1
    39   33   35       1
    40   35   36       1
    41   36   37      ar
    42   36   44      ar
    43   37   38      ar
    44   38   39       1
    45   38   42      ar
    46   39   40       2
    47   39   41      am
    48   42   43      ar
    49   43   44      ar
    50   45   46      ar
    51   45   47      ar
    52   45   48      ar
    53   43   72       1
    54    5   49       1
    55    5   50       1
    56    6   51       1
    57    8   52       1
    58    9   53       1
    59   10   54       1
    60   12   55       1
    61   14   56       1
    62   18   57       1
    63   18   58       1
    64   20   59       1
    65   44   73       1
    66   28   60       1
    67   28   61       1
    68   29   62       1
    69   31   63       1
    70   32   64       1
    71   33   65       1
    72   34   66       1
    73   35   67       1
    74   37   68       1
    75   41   69       1
    76   41   70       1
    77   42   71       1
@<TRIPOS>SUBSTRUCTURE
     1 NDP803      1 GROUP             4 A     NDP     0 **** NDP A 803
