@<TRIPOS>MOLECULE
1r4l_XX5_1_ligand
   50    51     1     0     0
SMALL
NO_CHARGES


@<TRIPOS>ATOM
     1 O1          38.2750     6.5680    23.4960 O.co2        1 XX5804   0.0000
     2 C2          38.3290     6.9780    24.6450 C.2          1 XX5804   0.0000
     3 O3          38.2580     8.1710    24.8880 O.co2        1 XX5804  -1.0000
     4 C4          38.4970     5.9530    25.7980 C.3          1 XX5804   0.0000
     5 C5          37.2120     5.5410    26.5440 C.3          1 XX5804   0.0000
     6 C6          35.8460     6.0590    26.1190 C.3          1 XX5804   0.0000
     7 C7          34.8290     5.5310    27.1100 C.3          1 XX5804   0.0000
     8 C8          35.4450     5.5210    24.7410 C.3          1 XX5804   0.0000
     9 N9          39.4770     6.3660    26.8120 N.4          1 XX5804   1.0000
    10 C10         40.8700     6.0060    26.5230 C.3          1 XX5804   0.0000
    11 C11         41.1040     4.5290    26.0730 C.2          1 XX5804   0.0000
    12 O12         41.4430     4.3310    24.9100 O.co2        1 XX5804   0.0000
    13 O13         40.9570     3.6150    26.8740 O.co2        1 XX5804  -1.0000
    14 C14         41.7770     6.3410    27.7390 C.3          1 XX5804   0.0000
    15 C15         43.2350     6.1620    27.3570 C.2          1 XX5804   0.0000
    16 C16         43.8580     6.7710    26.2490 C.2          1 XX5804   0.0000
    17 N17         45.1210     6.3640    26.2460 N.2          1 XX5804   0.0000
    18 C18         45.2640     5.5430    27.3090 C.2          1 XX5804   0.0000
    19 N19         44.1580     5.3670    28.0440 N.pl3        1 XX5804   0.0000
    20 C20         43.9510     4.5190    29.3010 C.3          1 XX5804   0.0000
    21 C21         43.9250     5.1530    30.7230 C.ar         1 XX5804   0.0000
    22 C22         44.6660     6.3460    30.9900 C.ar         1 XX5804   0.0000
    23 C23         44.6530     6.9500    32.3070 C.ar         1 XX5804   0.0000
    24 CL24        45.5690     8.4330    32.6490 Cl           1 XX5804   0.0000
    25 C25         43.9050     6.3810    33.3690 C.ar         1 XX5804   0.0000
    26 C26         43.1710     4.5910    31.8240 C.ar         1 XX5804   0.0000
    27 C27         43.1620     5.2070    33.1460 C.ar         1 XX5804   0.0000
    28 CL28        42.2250     4.5190    34.5160 Cl           1 XX5804   0.0000
    29 H1          38.8590     5.1191    25.3814 H            1 XX5804   0.0000
    30 H2          37.3363     5.8208    27.4960 H            1 XX5804   0.0000
    31 H3          37.1638     4.5434    26.4934 H            1 XX5804   0.0000
    32 H4          35.8401     7.0590    26.1158 H            1 XX5804   0.0000
    33 H5          33.9175     5.8553    26.8570 H            1 XX5804   0.0000
    34 H6          34.8418     4.5311    27.0999 H            1 XX5804   0.0000
    35 H7          35.0564     5.8581    28.0272 H            1 XX5804   0.0000
    36 H8          34.5452     5.8794    24.4922 H            1 XX5804   0.0000
    37 H9          36.1188     5.8105    24.0611 H            1 XX5804   0.0000
    38 H10         35.4094     4.5221    24.7706 H            1 XX5804   0.0000
    39 H11         39.2216     5.9397    27.6798 H            1 XX5804   0.0000
    40 H12         41.1696     6.5898    25.7684 H            1 XX5804   0.0000
    41 H13         41.5549     5.7285    28.4976 H            1 XX5804   0.0000
    42 H14         41.6209     7.2883    28.0187 H            1 XX5804   0.0000
    43 H15         43.4302     7.3910    25.5912 H            1 XX5804   0.0000
    44 H16         46.1321     5.0990    27.5311 H            1 XX5804   0.0000
    45 H17         44.6879     3.8431    29.3083 H            1 XX5804   0.0000
    46 H18         43.0733     4.0540    29.1847 H            1 XX5804   0.0000
    47 H19         45.2003     6.7692    30.2583 H            1 XX5804   0.0000
    48 H20         43.9056     6.8118    34.2715 H            1 XX5804   0.0000
    49 H21         42.6411     3.7564    31.6736 H            1 XX5804   0.0000
    50 H22         39.4275     7.3607    26.9020 H            1 XX5804   0.0000
@<TRIPOS>BOND
     1    1    2      ar
     2    2    3      ar
     3    2    4       1
     4    4    5       1
     5    4    9       1
     6    5    6       1
     7    6    7       1
     8    6    8       1
     9    9   10       1
    10   10   11       1
    11   10   14       1
    12   11   12      ar
    13   11   13      ar
    14   14   15       1
    15   15   16       2
    16   15   19       1
    17   16   17       1
    18   17   18       2
    19   18   19       1
    20   19   20       1
    21   20   21       1
    22   21   22      ar
    23   21   26      ar
    24   22   23      ar
    25   23   24       1
    26   23   25      ar
    27   25   27      ar
    28   26   27      ar
    29   27   28       1
    30   26   49       1
    31    4   29       1
    32    5   30       1
    33    5   31       1
    34    6   32       1
    35    7   33       1
    36    7   34       1
    37    7   35       1
    38    8   36       1
    39    8   37       1
    40    8   38       1
    41    9   39       1
    42   10   40       1
    43    9   50       1
    44   14   41       1
    45   14   42       1
    46   16   43       1
    47   18   44       1
    48   20   45       1
    49   20   46       1
    50   22   47       1
    51   25   48       1
@<TRIPOS>SUBSTRUCTURE
     1 XX5804      1 GROUP             4 A     XX5     0 **** XX5 A 804
