@<TRIPOS>MOLECULE
4ozn_ATP_3_ligand
   43    45     1     0     0
SMALL
NO_CHARGES


@<TRIPOS>ATOM
     1 PG         -29.9180    21.9020   -15.4760 P.3          1 ATP201   0.0000
     2 O1G        -30.1570    21.2560   -16.8220 O.co2        1 ATP201   0.0000
     3 O2G        -29.7930    23.4100   -15.5360 O.co2        1 ATP201  -1.0000
     4 O3G        -28.8410    21.2380   -14.6450 O.co2        1 ATP201  -1.0000
     5 PB         -32.6230    22.4940   -14.8450 P.3          1 ATP201   0.0000
     6 O1B        -33.8500    21.7190   -14.4260 O.co2        1 ATP201   0.0000
     7 O2B        -32.5360    23.1020   -16.2310 O.co2        1 ATP201  -1.0000
     8 O3B        -31.2870    21.5980   -14.6560 O.3          1 ATP201   0.0000
     9 PA         -32.7320    25.1540   -14.1480 P.3          1 ATP201   0.0000
    10 O1A        -31.4680    25.7240   -14.7400 O.co2        1 ATP201   0.0000
    11 O2A        -33.9880    25.1360   -14.9730 O.co2        1 ATP201  -1.0000
    12 O3A        -32.4270    23.6440   -13.7300 O.3          1 ATP201   0.0000
    13 O5'        -33.1510    25.9070   -12.8010 O.3          1 ATP201   0.0000
    14 C5'        -34.5160    25.8720   -12.3790 C.3          1 ATP201   0.0000
    15 C4'        -35.3090    27.1350   -12.7190 C.3          1 ATP201   0.0000
    16 O4'        -34.5540    28.1400   -13.3980 O.3          1 ATP201   0.0000
    17 C3'        -36.4820    26.8390   -13.6340 C.3          1 ATP201   0.0000
    18 O3'        -37.6150    26.4680   -12.8590 O.3          1 ATP201   0.0000
    19 C2'        -36.7250    28.1430   -14.3670 C.3          1 ATP201   0.0000
    20 O2'        -37.7360    28.9240   -13.7230 O.3          1 ATP201   0.0000
    21 C1'        -35.4030    28.8880   -14.2830 C.3          1 ATP201   0.0000
    22 N9         -34.7860    28.9630   -15.6320 N.pl3        1 ATP201   0.0000
    23 C8         -33.7700    28.1920   -16.0710 C.2          1 ATP201   0.0000
    24 N7         -33.4270    28.4990   -17.3460 N.2          1 ATP201   0.0000
    25 C5         -34.2400    29.4920   -17.7450 C.ar         1 ATP201   0.0000
    26 C6         -34.4150    30.2880   -18.9800 C.ar         1 ATP201   0.0000
    27 N6         -33.6310    30.0740   -20.0630 N.pl3        1 ATP201   0.0000
    28 N1         -35.3840    31.2330   -18.9850 N.ar         1 ATP201   0.0000
    29 C2         -36.1720    31.4590   -17.9130 C.ar         1 ATP201   0.0000
    30 N3         -36.0650    30.7730   -16.7600 N.ar         1 ATP201   0.0000
    31 C4         -35.1370    29.7940   -16.6150 C.ar         1 ATP201   0.0000
    32 H5'1       -34.5346    25.7474   -11.3870 H            1 ATP201   0.0000
    33 H5'2       -34.9613    25.0934   -12.8212 H            1 ATP201   0.0000
    34 H4'        -35.6620    27.5252   -11.8686 H            1 ATP201   0.0000
    35 H3'        -36.2471    26.1129   -14.2802 H            1 ATP201   0.0000
    36 H5         -38.4498    26.7402   -13.3375 H            1 ATP201   0.0000
    37 H2'        -36.9700    27.9692   -15.3208 H            1 ATP201   0.0000
    38 H7         -37.8725    29.7755   -14.2294 H            1 ATP201   0.0000
    39 H1'        -35.5501    29.8085   -13.9211 H            1 ATP201   0.0000
    40 H9         -33.3254    27.4826   -15.5242 H            1 ATP201   0.0000
    41 H10        -33.7614    30.6202   -20.8905 H            1 ATP201   0.0000
    42 H11        -32.9215    29.3698   -20.0354 H            1 ATP201   0.0000
    43 H12        -36.8703    32.1718   -17.9786 H            1 ATP201   0.0000
@<TRIPOS>BOND
     1    1    2      ar
     2    1    3      ar
     3    1    4      ar
     4    1    8       1
     5    5    6      ar
     6    5    7      ar
     7    5    8       1
     8    5   12       1
     9    9   10      ar
    10    9   11      ar
    11    9   12       1
    12    9   13       1
    13   13   14       1
    14   14   15       1
    15   15   16       1
    16   15   17       1
    17   16   21       1
    18   17   18       1
    19   17   19       1
    20   19   20       1
    21   19   21       1
    22   21   22       1
    23   22   23       1
    24   22   31       1
    25   23   24       2
    26   24   25       1
    27   25   26      ar
    28   25   31      ar
    29   26   27       1
    30   26   28      ar
    31   28   29      ar
    32   29   30      ar
    33   30   31      ar
    34   29   43       1
    35   27   42       1
    36   27   41       1
    37   23   40       1
    38   14   32       1
    39   14   33       1
    40   15   34       1
    41   17   35       1
    42   18   36       1
    43   19   37       1
    44   20   38       1
    45   21   39       1
@<TRIPOS>SUBSTRUCTURE
     1 ATP201      1 GROUP             4 C     ATP     0 **** ATP C 201
