@<TRIPOS>MOLECULE
4az3_S35_1_ligand
   65    67     1     0     0
SMALL
NO_CHARGES


@<TRIPOS>ATOM
     1 C35        -36.2570     9.5860    15.4020 C.3          1 S351259   0.0000
     2 C30        -35.0480     8.7390    15.8270 C.ar         1 S351259   0.0000
     3 C31        -35.2460     7.3580    15.9480 C.ar         1 S351259   0.0000
     4 C32        -34.1980     6.5160    16.3310 C.ar         1 S351259   0.0000
     5 C33        -32.9390     7.0600    16.5960 C.ar         1 S351259   0.0000
     6 C34        -32.7350     8.4370    16.4730 C.ar         1 S351259   0.0000
     7 C29        -33.7740     9.2990    16.0790 C.ar         1 S351259   0.0000
     8 C24        -33.5290    10.8340    15.9660 C.3          1 S351259   0.0000
     9 C25        -32.0610    11.2200    15.6830 C.3          1 S351259   0.0000
    10 C26        -31.5580    10.8240    14.2860 C.2          1 S351259   0.0000
    11 O28        -32.3350    10.9850    13.3220 O.3          1 S351259   0.0000
    12 O27        -30.3800    10.4170    14.2100 O.2          1 S351259   0.0000
    13 N23        -33.9400    11.4910    17.2190 N.am         1 S351259   0.0000
    14 C21        -34.5870    12.6590    17.3070 C.2          1 S351259   0.0000
    15 O22        -34.9460    13.3540    16.3530 O.2          1 S351259   0.0000
    16 C10        -34.8410    13.1040    18.7530 C.2          1 S351259   0.0000
    17 N9         -34.7920    12.2730    19.7910 N.2          1 S351259   0.0000
    18 C11        -35.0910    14.3430    19.1730 C.2          1 S351259   0.0000
    19 C12        -35.2330    14.2080    20.4940 C.2          1 S351259   0.0000
    20 O13        -35.4530    15.2000    21.4170 O.3          1 S351259   0.0000
    21 C14        -36.4210    16.2360    21.0980 C.3          1 S351259   0.0000
    22 C15        -35.7530    17.6350    21.1320 C.3          1 S351259   0.0000
    23 C17        -36.6870    18.8680    21.3740 C.3          1 S351259   0.0000
    24 C19        -35.9900    20.1210    20.8340 C.3          1 S351259   0.0000
    25 C20        -38.0300    18.7430    20.6350 C.3          1 S351259   0.0000
    26 C18        -36.9720    19.0880    22.8700 C.3          1 S351259   0.0000
    27 O16        -34.6310    17.6280    22.0330 O.3          1 S351259   0.0000
    28 N8         -34.9870    12.9340    20.8080 N.pl3        1 S351259   0.0000
    29 C6         -35.0460    12.3890    22.0230 C.ar         1 S351259   0.0000
    30 C5         -33.8760    12.1840    22.7630 C.ar         1 S351259   0.0000
    31 C4         -33.9450    11.5770    24.0220 C.ar         1 S351259   0.0000
    32 C3         -35.1770    11.1610    24.5370 C.ar         1 S351259   0.0000
    33 C2         -36.3450    11.3540    23.7920 C.ar         1 S351259   0.0000
    34 C1         -36.2770    11.9570    22.5300 C.ar         1 S351259   0.0000
    35 F7         -37.4020    12.1360    21.8080 F            1 S351259   0.0000
    36 H1         -35.9889    10.5481    15.3520 H            1 S351259   0.0000
    37 H2         -36.5779     9.2823    14.5049 H            1 S351259   0.0000
    38 H3         -36.9912     9.4789    16.0724 H            1 S351259   0.0000
    39 H4         -36.1477     6.9696    15.7582 H            1 S351259   0.0000
    40 H5         -34.3485     5.5309    16.4147 H            1 S351259   0.0000
    41 H6         -32.1847     6.4649    16.8733 H            1 S351259   0.0000
    42 H7         -31.8312     8.8174    16.6693 H            1 S351259   0.0000
    43 H8         -34.0966    11.1895    15.2234 H            1 S351259   0.0000
    44 H9         -31.4826    10.7694    16.3630 H            1 S351259   0.0000
    45 H10        -31.9748    12.2119    15.7768 H            1 S351259   0.0000
    46 H11        -33.7168    11.0252    18.0753 H            1 S351259   0.0000
    47 H12        -35.1569    15.1783    18.6272 H            1 S351259   0.0000
    48 H13        -37.1633    16.2098    21.7675 H            1 S351259   0.0000
    49 H14        -36.7907    16.0703    20.1837 H            1 S351259   0.0000
    50 H15        -35.3639    17.7684    20.2205 H            1 S351259   0.0000
    51 H16        -36.5756    20.9180    20.9818 H            1 S351259   0.0000
    52 H17        -35.1218    20.2519    21.3126 H            1 S351259   0.0000
    53 H18        -35.8177    20.0109    19.8551 H            1 S351259   0.0000
    54 H19        -38.5889    19.5513    20.8202 H            1 S351259   0.0000
    55 H20        -37.8639    18.6708    19.6515 H            1 S351259   0.0000
    56 H21        -38.5105    17.9256    20.9528 H            1 S351259   0.0000
    57 H22        -37.5697    19.8818    22.9822 H            1 S351259   0.0000
    58 H23        -37.4202    18.2773    23.2467 H            1 S351259   0.0000
    59 H24        -36.1113    19.2479    23.3533 H            1 S351259   0.0000
    60 H25        -34.9387    17.8802    22.9505 H            1 S351259   0.0000
    61 H26        -32.9924    12.4707    22.3928 H            1 S351259   0.0000
    62 H27        -33.1103    11.4402    24.5554 H            1 S351259   0.0000
    63 H28        -35.2228    10.7263    25.4364 H            1 S351259   0.0000
    64 H29        -37.2276    11.0617    24.1602 H            1 S351259   0.0000
    65 H30        -32.0429    10.7387    12.3979 H            1 S351259   0.0000
@<TRIPOS>BOND
     1    1    2       1
     2    2    3      ar
     3    2    7      ar
     4    3    4      ar
     5    4    5      ar
     6    5    6      ar
     7    6    7      ar
     8    7    8       1
     9    8    9       1
    10    8   13       1
    11    9   10       1
    12   10   11       1
    13   10   12       2
    14   13   14      am
    15   14   15       2
    16   14   16       1
    17   16   17       2
    18   16   18       1
    19   17   28       1
    20   18   19       2
    21   19   20       1
    22   19   28       1
    23   20   21       1
    24   21   22       1
    25   22   23       1
    26   22   27       1
    27   23   24       1
    28   23   25       1
    29   23   26       1
    30   28   29       1
    31   29   30      ar
    32   29   34      ar
    33   30   31      ar
    34   31   32      ar
    35   32   33      ar
    36   33   34      ar
    37   34   35       1
    38    1   36       1
    39    1   37       1
    40    1   38       1
    41    3   39       1
    42    4   40       1
    43    5   41       1
    44    6   42       1
    45    8   43       1
    46    9   44       1
    47    9   45       1
    48   33   64       1
    49   13   46       1
    50   18   47       1
    51   21   48       1
    52   21   49       1
    53   22   50       1
    54   24   51       1
    55   24   52       1
    56   24   53       1
    57   25   54       1
    58   25   55       1
    59   25   56       1
    60   26   57       1
    61   26   58       1
    62   26   59       1
    63   27   60       1
    64   30   61       1
    65   31   62       1
    66   32   63       1
    67   11   65       1
@<TRIPOS>SUBSTRUCTURE
     1 S351259     1 GROUP             4 A     S35     0 **** S35 A1259
