@<TRIPOS>MOLECULE
4fak_SAM_1_ligand
   50    52     1     0     0
SMALL
NO_CHARGES


@<TRIPOS>ATOM
     1 N           -3.6230    -7.0800    -0.9520 N.4          1 SAM201   1.0000
     2 CA          -4.7070    -7.6800    -0.1000 C.3          1 SAM201   0.0000
     3 C           -5.3940    -6.5460     0.7550 C.2          1 SAM201   0.0000
     4 O           -4.8220    -5.4040     0.4910 O.co2        1 SAM201   0.0000
     5 OXT         -6.4470    -6.8420     1.6280 O.co2        1 SAM201  -1.0000
     6 CB          -4.1110    -8.8180     0.8110 C.3          1 SAM201   0.0000
     7 CG          -5.1280    -9.5420     1.7270 C.3          1 SAM201   0.0000
     8 SD          -4.6490   -10.8920     2.9110 S.3          1 SAM201   1.0000
     9 CE          -3.3020   -11.8830     2.1000 C.3          1 SAM201   0.0000
    10 C5'         -6.0770   -11.9940     3.1110 C.3          1 SAM201   0.0000
    11 C4'         -7.0570   -11.5480     4.1980 C.3          1 SAM201   0.0000
    12 O4'         -6.4950   -11.6980     5.4570 O.3          1 SAM201   0.0000
    13 C3'         -7.4270   -10.0700     4.1090 C.3          1 SAM201   0.0000
    14 O3'         -8.5250    -9.9530     3.2840 O.3          1 SAM201   0.0000
    15 C2'         -7.7260    -9.7030     5.5660 C.3          1 SAM201   0.0000
    16 O2'         -9.0500    -9.9480     5.8840 O.3          1 SAM201   0.0000
    17 C1'         -6.8140   -10.6490     6.3460 C.3          1 SAM201   0.0000
    18 N9          -5.5700    -9.9140     6.8370 N.pl3        1 SAM201   0.0000
    19 C8          -4.2630   -10.1720     6.4760 C.2          1 SAM201   0.0000
    20 N7          -3.4510    -9.3540     7.1060 N.2          1 SAM201   0.0000
    21 C5          -4.1990    -8.5610     7.8900 C.ar         1 SAM201   0.0000
    22 C6          -3.9220    -7.5140     8.8010 C.ar         1 SAM201   0.0000
    23 N6          -2.6680    -7.0740     9.0770 N.pl3        1 SAM201   0.0000
    24 N1          -4.9810    -6.9040     9.4630 N.ar         1 SAM201   0.0000
    25 C2          -6.2680    -7.2560     9.2560 C.ar         1 SAM201   0.0000
    26 N3          -6.5310    -8.2410     8.3730 N.ar         1 SAM201   0.0000
    27 C4          -5.5370    -8.9020     7.6950 C.ar         1 SAM201   0.0000
    28 H1          -2.9023    -7.7572    -1.1002 H            1 SAM201   0.0000
    29 H2          -4.0064    -6.8030    -1.8330 H            1 SAM201   0.0000
    30 HA          -5.3958    -8.0842    -0.7019 H            1 SAM201   0.0000
    31 HB1         -3.4083    -8.4096     1.3936 H            1 SAM201   0.0000
    32 HB2         -3.6926    -9.5026     0.2142 H            1 SAM201   0.0000
    33 HG1         -5.8115    -9.9419     1.1164 H            1 SAM201   0.0000
    34 HG2         -5.5543    -8.8280     2.2824 H            1 SAM201   0.0000
    35 HE1         -3.0179   -12.6219     2.7110 H            1 SAM201   0.0000
    36 HE2         -3.6431   -12.2710     1.2438 H            1 SAM201   0.0000
    37 HE3         -2.5203   -11.2893     1.9089 H            1 SAM201   0.0000
    38 H5'1        -5.7405   -12.9060     3.3455 H            1 SAM201   0.0000
    39 H5'2        -6.5685   -12.0335     2.2410 H            1 SAM201   0.0000
    40 H4'         -7.8885   -12.1005     4.1397 H            1 SAM201   0.0000
    41 H3'         -6.6602    -9.5327     3.7578 H            1 SAM201   0.0000
    42 H15         -8.7859    -8.9904     3.2108 H            1 SAM201   0.0000
    43 H2'         -7.4876    -8.7491     5.7482 H            1 SAM201   0.0000
    44 H17         -9.4878    -9.0951     6.1684 H            1 SAM201   0.0000
    45 H1'         -7.3122   -11.0187     7.1303 H            1 SAM201   0.0000
    46 H19         -3.9761   -10.8786     5.8292 H            1 SAM201   0.0000
    47 H20         -2.5319    -6.3295     9.7306 H            1 SAM201   0.0000
    48 H21         -1.8802    -7.4944     8.6268 H            1 SAM201   0.0000
    49 H22         -7.0090    -6.7970     9.7461 H            1 SAM201   0.0000
    50 H23         -3.2394    -6.2808    -0.4893 H            1 SAM201   0.0000
@<TRIPOS>BOND
     1    1    2       1
     2    2    3       1
     3    2    6       1
     4    3    4      ar
     5    3    5      ar
     6    6    7       1
     7    7    8       1
     8    8    9       1
     9    8   10       1
    10   10   11       1
    11   11   12       1
    12   11   13       1
    13   12   17       1
    14   13   14       1
    15   13   15       1
    16   15   16       1
    17   15   17       1
    18   17   18       1
    19   18   19       1
    20   18   27       1
    21   19   20       2
    22   20   21       1
    23   21   22      ar
    24   21   27      ar
    25   22   23       1
    26   22   24      ar
    27   24   25      ar
    28   25   26      ar
    29   26   27      ar
    30    1   28       1
    31    1   29       1
    32    2   30       1
    33    1   50       1
    34    6   31       1
    35    6   32       1
    36    7   33       1
    37    7   34       1
    38    9   35       1
    39    9   36       1
    40    9   37       1
    41   10   38       1
    42   10   39       1
    43   11   40       1
    44   13   41       1
    45   14   42       1
    46   15   43       1
    47   16   44       1
    48   17   45       1
    49   19   46       1
    50   23   47       1
    51   23   48       1
    52   25   49       1
@<TRIPOS>SUBSTRUCTURE
     1 SAM201      1 GROUP             4 A     SAM     0 **** SAM A 201
