@<TRIPOS>MOLECULE
2yw2_ATP_2_ligand
   43    45     1     0     0
SMALL
NO_CHARGES


@<TRIPOS>ATOM
     1 PG         -34.0230    10.8800    43.3920 P.3          1 ATP647   0.0000
     2 O1G        -33.8490    12.3170    43.0560 O.co2        1 ATP647   0.0000
     3 O2G        -35.5930    10.5210    43.3540 O.co2        1 ATP647  -1.0000
     4 O3G        -33.4470    10.5720    44.8680 O.co2        1 ATP647  -1.0000
     5 PB         -31.7590    10.4680    42.0370 P.3          1 ATP647   0.0000
     6 O1B        -31.1110     9.4840    41.1390 O.co2        1 ATP647   0.0000
     7 O2B        -31.7550    11.8960    41.2950 O.co2        1 ATP647  -1.0000
     8 O3B        -33.2690     9.9530    42.3090 O.3          1 ATP647   0.0000
     9 PA         -30.5760    11.9440    44.0540 P.3          1 ATP647   0.0000
    10 O1A        -31.7390    12.4180    44.8050 O.co2        1 ATP647   0.0000
    11 O2A        -30.1880    13.0180    42.9160 O.co2        1 ATP647  -1.0000
    12 O3A        -30.8950    10.4690    43.4300 O.3          1 ATP647   0.0000
    13 O5'        -29.3650    11.7970    45.1050 O.3          1 ATP647   0.0000
    14 C5'        -28.2040    11.2930    44.4430 C.3          1 ATP647   0.0000
    15 C4'        -27.0860    11.2750    45.4830 C.3          1 ATP647   0.0000
    16 O4'        -27.1310    10.0470    46.2690 O.3          1 ATP647   0.0000
    17 C3'        -25.6820    11.3220    44.8660 C.3          1 ATP647   0.0000
    18 O3'        -25.3030    12.6530    44.5160 O.3          1 ATP647   0.0000
    19 C2'        -24.8420    10.7060    45.9850 C.3          1 ATP647   0.0000
    20 O2'        -24.5230    11.6790    46.9830 O.3          1 ATP647   0.0000
    21 C1'        -25.7570     9.5960    46.5270 C.3          1 ATP647   0.0000
    22 N9         -25.4900     8.3210    45.8270 N.pl3        1 ATP647   0.0000
    23 C8         -26.2560     7.7420    44.8400 C.2          1 ATP647   0.0000
    24 N7         -25.7260     6.6240    44.4510 N.2          1 ATP647   0.0000
    25 C5         -24.5880     6.4020    45.1520 C.ar         1 ATP647   0.0000
    26 C6         -23.6040     5.3790    45.1780 C.ar         1 ATP647   0.0000
    27 N6         -23.7020     4.2840    44.3370 N.pl3        1 ATP647   0.0000
    28 N1         -22.5690     5.4950    46.0390 N.ar         1 ATP647   0.0000
    29 C2         -22.4500     6.5430    46.8650 C.ar         1 ATP647   0.0000
    30 N3         -23.3510     7.5240    46.8780 N.ar         1 ATP647   0.0000
    31 C4         -24.4220     7.4960    46.0490 C.ar         1 ATP647   0.0000
    32 H5'1       -27.9558    11.8888    43.6791 H            1 ATP647   0.0000
    33 H5'2       -28.3743    10.3682    44.1028 H            1 ATP647   0.0000
    34 H4'        -27.1986    12.0575    46.0953 H            1 ATP647   0.0000
    35 H3'        -25.6485    10.7365    44.0561 H            1 ATP647   0.0000
    36 H5         -24.3101    12.7471    44.5894 H            1 ATP647   0.0000
    37 H2'        -24.0043    10.3097    45.6093 H            1 ATP647   0.0000
    38 H7         -23.6613    12.1283    46.7471 H            1 ATP647   0.0000
    39 H1'        -25.6128     9.4833    47.5101 H            1 ATP647   0.0000
    40 H9         -27.1024     8.1293    44.4744 H            1 ATP647   0.0000
    41 H10        -23.0033     3.5691    44.3635 H            1 ATP647   0.0000
    42 H11        -24.4715     4.2078    43.7029 H            1 ATP647   0.0000
    43 H12        -21.6673     6.5899    47.4856 H            1 ATP647   0.0000
@<TRIPOS>BOND
     1    1    2      ar
     2    1    3      ar
     3    1    4      ar
     4    1    8       1
     5    5    6      ar
     6    5    7      ar
     7    5    8       1
     8    5   12       1
     9    9   10      ar
    10    9   11      ar
    11    9   12       1
    12    9   13       1
    13   13   14       1
    14   14   15       1
    15   15   16       1
    16   15   17       1
    17   16   21       1
    18   17   18       1
    19   17   19       1
    20   19   20       1
    21   19   21       1
    22   21   22       1
    23   22   23       1
    24   22   31       1
    25   23   24       2
    26   24   25       1
    27   25   26      ar
    28   25   31      ar
    29   26   27       1
    30   26   28      ar
    31   28   29      ar
    32   29   30      ar
    33   30   31      ar
    34   29   43       1
    35   27   42       1
    36   27   41       1
    37   23   40       1
    38   14   32       1
    39   14   33       1
    40   15   34       1
    41   17   35       1
    42   18   36       1
    43   19   37       1
    44   20   38       1
    45   21   39       1
@<TRIPOS>SUBSTRUCTURE
     1 ATP647      1 GROUP             4 B     ATP     0 **** ATP B 647
