@<TRIPOS>MOLECULE
4fxy_0W2_1_ligand
   71    76     1     0     0
SMALL
NO_CHARGES


@<TRIPOS>ATOM
     1 C5          48.5810     4.5140    45.6940 C.3          1 0W2701   0.0000
     2 C6          46.3990     5.6120    45.8890 C.2          1 0W2701   0.0000
     3 N1          47.5030     1.4950    43.5350 N.pl3        1 0W2701   0.0000
     4 C2          47.3970     3.1200    41.7860 C.3          1 0W2701   0.0000
     5 N3          47.5340     5.1830    46.4490 N.pl3        1 0W2701   0.0000
     6 C4          48.1070     3.0960    45.3510 C.2          1 0W2701   0.0000
     7 C11         48.3930     0.4660    43.4850 C.ar         1 0W2701   0.0000
     8 C12         47.8980    -0.8420    43.7120 C.ar         1 0W2701   0.0000
     9 C13         48.7370    -1.9600    43.6780 C.ar         1 0W2701   0.0000
    10 C14         50.1110    -1.7930    43.4100 C.ar         1 0W2701   0.0000
    11 C15         50.6340    -0.4990    43.1810 C.ar         1 0W2701   0.0000
    12 C16         49.7910     0.6160    43.2180 C.ar         1 0W2701   0.0000
    13 C31         44.1440     6.7050    46.1710 C.3          1 0W2701   0.0000
    14 N4          45.4410     6.2200    46.6590 N.2          1 0W2701   0.0000
    15 O1          46.1840     5.4730    44.6880 O.3          1 0W2701   0.0000
    16 C66         49.9040     4.4780    46.4940 C.3          1 0W2701   0.0000
    17 O2          47.7590     2.3420    46.2530 O.2          1 0W2701   0.0000
    18 N2          47.9480     2.7470    44.0400 N.am         1 0W2701   0.0000
    19 F1          46.6090    -1.0490    43.9680 F            1 0W2701   0.0000
    20 C1          46.6750     1.8620    42.3600 C.3          1 0W2701   0.0000
    21 C21         45.2060     2.0730    42.7630 C.ar         1 0W2701   0.0000
    22 C26         44.8190     2.2120    44.1280 C.ar         1 0W2701   0.0000
    23 C25         43.5050     2.3990    44.5040 C.ar         1 0W2701   0.0000
    24 C24         42.4750     2.4610    43.5520 C.ar         1 0W2701   0.0000
    25 C23         42.8030     2.3290    42.1810 C.ar         1 0W2701   0.0000
    26 C22         44.1570     2.1370    41.8060 C.ar         1 0W2701   0.0000
    27 CL1         44.4460     1.9840    40.0960 Cl           1 0W2701   0.0000
    28 C3          48.1000     3.7440    42.9590 C.3          1 0W2701   0.0000
    29 C36         43.7760     8.0940    46.7600 C.3          1 0W2701   0.0000
    30 C37         43.6750     8.0120    48.3130 C.3          1 0W2701   0.0000
    31 C38         42.5770     6.9840    48.7360 C.3          1 0W2701   0.0000
    32 C40         42.9300     5.5920    48.1480 C.3          1 0W2701   0.0000
    33 C32         43.0190     5.6560    46.5730 C.3          1 0W2701   0.0000
    34 C33         41.6350     6.1320    46.0270 C.3          1 0W2701   0.0000
    35 C34         41.2860     7.5280    46.5830 C.3          1 0W2701   0.0000
    36 C39         41.1960     7.4420    48.1520 C.3          1 0W2701   0.0000
    37 C35         42.4010     8.5360    46.1860 C.3          1 0W2701   0.0000
    38 H1          48.7340     5.0161    44.8428 H            1 0W2701   0.0000
    39 H2          46.7326     3.7577    41.3961 H            1 0W2701   0.0000
    40 H3          48.0568     2.8548    41.0829 H            1 0W2701   0.0000
    41 H4          47.6689     5.3283    47.4291 H            1 0W2701   0.0000
    42 H5          48.3644    -2.8732    43.8429 H            1 0W2701   0.0000
    43 H6          50.7155    -2.5891    43.3818 H            1 0W2701   0.0000
    44 H7          51.6089    -0.3812    42.9922 H            1 0W2701   0.0000
    45 H8          50.1689     1.5276    43.0562 H            1 0W2701   0.0000
    46 H9          44.1792     6.7754    45.1741 H            1 0W2701   0.0000
    47 H10         50.6070     4.0140    45.9550 H            1 0W2701   0.0000
    48 H11         50.1990     5.4126    46.6926 H            1 0W2701   0.0000
    49 H12         49.7615     3.9841    47.3518 H            1 0W2701   0.0000
    50 H13         46.7236     1.1247    41.6862 H            1 0W2701   0.0000
    51 H14         45.5236     2.1726    44.8365 H            1 0W2701   0.0000
    52 H15         43.2816     2.4923    45.4743 H            1 0W2701   0.0000
    53 H16         41.5261     2.5961    43.8373 H            1 0W2701   0.0000
    54 H17         42.0870     2.3707    41.4841 H            1 0W2701   0.0000
    55 H18         47.6692     4.6104    43.2116 H            1 0W2701   0.0000
    56 H19         49.0660     3.8997    42.7525 H            1 0W2701   0.0000
    57 H20         44.4754     8.7617    46.5049 H            1 0W2701   0.0000
    58 H21         43.4390     8.9136    48.6756 H            1 0W2701   0.0000
    59 H22         44.5571     7.7234    48.6854 H            1 0W2701   0.0000
    60 H23         42.5253     6.9304    49.7332 H            1 0W2701   0.0000
    61 H24         42.2221     4.9361    48.4101 H            1 0W2701   0.0000
    62 H25         43.8118     5.2951    48.5146 H            1 0W2701   0.0000
    63 H26         43.2424     4.7538    46.2042 H            1 0W2701   0.0000
    64 H27         40.9294     5.4807    46.3063 H            1 0W2701   0.0000
    65 H28         41.6723     6.1753    45.0286 H            1 0W2701   0.0000
    66 H29         40.4087     7.8305    46.2103 H            1 0W2701   0.0000
    67 H30         40.9606     8.3410    48.5213 H            1 0W2701   0.0000
    68 H31         40.4908     6.7811    48.4088 H            1 0W2701   0.0000
    69 H32         42.4616     8.5817    45.1889 H            1 0W2701   0.0000
    70 H33         42.1700     9.4393    46.5476 H            1 0W2701   0.0000
    71 H34         45.3268     5.8024    44.2921 H            1 0W2701   0.0000
@<TRIPOS>BOND
     1    1    5       1
     2    1    6       1
     3    1   16       1
     4    2    5       1
     5    2   14       2
     6    2   15       1
     7    3    7       1
     8    3   18       1
     9    3   20       1
    10    4   20       1
    11    4   28       1
    12    6   17       2
    13    6   18      am
    14    7    8      ar
    15    7   12      ar
    16    8    9      ar
    17    8   19       1
    18    9   10      ar
    19   10   11      ar
    20   11   12      ar
    21   13   14       1
    22   13   29       1
    23   13   33       1
    24   18   28       1
    25   20   21       1
    26   21   22      ar
    27   21   26      ar
    28   22   23      ar
    29   23   24      ar
    30   24   25      ar
    31   25   26      ar
    32   26   27       1
    33   29   30       1
    34   29   37       1
    35   30   31       1
    36   31   32       1
    37   31   36       1
    38   32   33       1
    39   33   34       1
    40   34   35       1
    41   35   36       1
    42   35   37       1
    43    1   38       1
    44    4   39       1
    45    4   40       1
    46    5   41       1
    47    9   42       1
    48   10   43       1
    49   11   44       1
    50   12   45       1
    51   13   46       1
    52   37   70       1
    53   16   47       1
    54   16   48       1
    55   16   49       1
    56   20   50       1
    57   22   51       1
    58   23   52       1
    59   24   53       1
    60   25   54       1
    61   28   55       1
    62   28   56       1
    63   29   57       1
    64   30   58       1
    65   30   59       1
    66   31   60       1
    67   32   61       1
    68   32   62       1
    69   33   63       1
    70   34   64       1
    71   34   65       1
    72   35   66       1
    73   36   67       1
    74   36   68       1
    75   37   69       1
    76   15   71       1
@<TRIPOS>SUBSTRUCTURE
     1 0W2701      1 GROUP             4 P     0W2     0 **** 0W2 P 701
