@<TRIPOS>MOLECULE
2if8_ADP_1_ligand
   39    41     1     0     0
SMALL
NO_CHARGES


@<TRIPOS>ATOM
     1 PB          25.1440    68.1890    48.4630 P.3          1 ADP401   0.0000
     2 O1B         24.3280    68.7070    49.6430 O.co2        1 ADP401   0.0000
     3 O2B         24.8380    66.7340    48.1640 O.co2        1 ADP401  -1.0000
     4 O3B         26.6380    68.4790    48.5570 O.co2        1 ADP401  -1.0000
     5 PA          24.9640    70.3090    46.3420 P.3          1 ADP401   0.0000
     6 O1A         23.8530    71.3160    46.5380 O.co2        1 ADP401   0.0000
     7 O2A         26.4000    70.7210    46.6070 O.co2        1 ADP401  -1.0000
     8 O3A         24.5710    68.9130    47.1060 O.3          1 ADP401   0.0000
     9 O5'         24.9520    69.8430    44.8070 O.3          1 ADP401   0.0000
    10 C5'         26.1910    69.6090    44.1340 C.3          1 ADP401   0.0000
    11 C4'         26.0330    69.9280    42.6530 C.3          1 ADP401   0.0000
    12 O4'         24.6580    69.8120    42.2270 O.3          1 ADP401   0.0000
    13 C3'         26.4760    71.3470    42.3230 C.3          1 ADP401   0.0000
    14 O3'         27.8810    71.4310    42.0430 O.3          1 ADP401   0.0000
    15 C2'         25.5910    71.7250    41.1360 C.3          1 ADP401   0.0000
    16 O2'         26.2270    71.4730    39.8690 O.3          1 ADP401   0.0000
    17 C1'         24.3460    70.8440    41.2730 C.3          1 ADP401   0.0000
    18 N9          23.1590    71.6680    41.6750 N.pl3        1 ADP401   0.0000
    19 C8          22.6430    71.8200    42.9160 C.2          1 ADP401   0.0000
    20 N7          21.5620    72.6390    42.9230 N.2          1 ADP401   0.0000
    21 C5          21.3660    73.0300    41.6550 C.ar         1 ADP401   0.0000
    22 C6          20.3940    73.8900    40.9400 C.ar         1 ADP401   0.0000
    23 N6          19.4040    74.5180    41.6040 N.pl3        1 ADP401   0.0000
    24 N1          20.5370    74.0260    39.5980 N.ar         1 ADP401   0.0000
    25 C2          21.5260    73.4060    38.9130 C.ar         1 ADP401   0.0000
    26 N3          22.4460    72.6080    39.4890 N.ar         1 ADP401   0.0000
    27 C4          22.4160    72.3880    40.8330 C.ar         1 ADP401   0.0000
    28 H5'1        26.4531    68.6501    44.2422 H            1 ADP401   0.0000
    29 H5'2        26.8997    70.1947    44.5273 H            1 ADP401   0.0000
    30 H4'         26.5888    69.2863    42.1245 H            1 ADP401   0.0000
    31 H3'         26.2602    71.9447    43.0951 H            1 ADP401   0.0000
    32 H5          28.3146    72.0517    42.6963 H            1 ADP401   0.0000
    33 H2'         25.3326    72.6889    41.1995 H            1 ADP401   0.0000
    34 H7          25.6093    71.7360    39.1278 H            1 ADP401   0.0000
    35 H1'         24.1559    70.4171    40.3889 H            1 ADP401   0.0000
    36 H9          23.0152    71.3798    43.7331 H            1 ADP401   0.0000
    37 H10         18.7560    75.0950    41.1068 H            1 ADP401   0.0000
    38 H11         19.3172    74.4071    42.5940 H            1 ADP401   0.0000
    39 H12         21.5767    73.5481    37.9244 H            1 ADP401   0.0000
@<TRIPOS>BOND
     1    1    2      ar
     2    1    3      ar
     3    1    4      ar
     4    1    8       1
     5    5    6      ar
     6    5    7      ar
     7    5    8       1
     8    5    9       1
     9    9   10       1
    10   10   11       1
    11   11   12       1
    12   11   13       1
    13   12   17       1
    14   13   14       1
    15   13   15       1
    16   15   16       1
    17   15   17       1
    18   17   18       1
    19   18   19       1
    20   18   27       1
    21   19   20       2
    22   20   21       1
    23   21   22      ar
    24   21   27      ar
    25   22   23       1
    26   22   24      ar
    27   24   25      ar
    28   25   26      ar
    29   26   27      ar
    30   25   39       1
    31   23   38       1
    32   23   37       1
    33   10   28       1
    34   10   29       1
    35   11   30       1
    36   13   31       1
    37   14   32       1
    38   15   33       1
    39   16   34       1
    40   17   35       1
    41   19   36       1
@<TRIPOS>SUBSTRUCTURE
     1 ADP401      1 GROUP             4 A     ADP     0 **** ADP A 401
