@<TRIPOS>MOLECULE
3tos_SAH_4_ligand
   46    48     1     0     0
SMALL
NO_CHARGES


@<TRIPOS>ATOM
     1 N           19.4520   -42.9760   -38.5720 N.4          1 SAH258   1.0000
     2 CA          19.5130   -44.4460   -38.4240 C.3          1 SAH258   0.0000
     3 CB          20.6960   -44.8920   -37.5560 C.3          1 SAH258   0.0000
     4 CG          22.0940   -44.4110   -38.0350 C.3          1 SAH258   0.0000
     5 SD          23.3810   -45.5020   -37.4210 S.3          1 SAH258   0.0000
     6 C           18.1960   -44.9060   -37.8180 C.2          1 SAH258   0.0000
     7 O           17.9910   -46.1470   -37.6430 O.co2        1 SAH258   0.0000
     8 OXT         17.3050   -44.0640   -37.5130 O.co2        1 SAH258  -1.0000
     9 C5'         24.8390   -44.4940   -37.7320 C.3          1 SAH258   0.0000
    10 C4'         25.2320   -44.4550   -39.2080 C.3          1 SAH258   0.0000
    11 O4'         26.2100   -43.4250   -39.3610 O.3          1 SAH258   0.0000
    12 C3'         25.8510   -45.7690   -39.7120 C.3          1 SAH258   0.0000
    13 O3'         25.0250   -46.3270   -40.7400 O.3          1 SAH258   0.0000
    14 C2'         27.2210   -45.2990   -40.1980 C.3          1 SAH258   0.0000
    15 O2'         27.6840   -46.0030   -41.3290 O.3          1 SAH258   0.0000
    16 C1'         26.9860   -43.7840   -40.4740 C.3          1 SAH258   0.0000
    17 N9          28.2620   -43.0220   -40.5060 N.pl3        1 SAH258   0.0000
    18 C8          29.0920   -42.8500   -39.4570 C.2          1 SAH258   0.0000
    19 N7          30.1770   -42.1460   -39.8640 N.2          1 SAH258   0.0000
    20 C5          30.0490   -41.9170   -41.1960 C.ar         1 SAH258   0.0000
    21 C6          30.8390   -41.2510   -42.2200 C.ar         1 SAH258   0.0000
    22 N6          32.0520   -40.7450   -41.9040 N.pl3        1 SAH258   0.0000
    23 N1          30.3210   -41.2070   -43.4750 N.ar         1 SAH258   0.0000
    24 C2          29.1310   -41.7630   -43.8160 C.ar         1 SAH258   0.0000
    25 N3          28.3810   -42.4390   -42.9330 N.ar         1 SAH258   0.0000
    26 C4          28.7890   -42.4990   -41.6240 C.ar         1 SAH258   0.0000
    27 H1          18.6687   -42.7307   -39.1432 H            1 SAH258   0.0000
    28 H2          19.3526   -42.5541   -37.6708 H            1 SAH258   0.0000
    29 HA          19.6088   -44.8557   -39.3312 H            1 SAH258   0.0000
    30 HB1         20.7041   -45.8918   -37.5359 H            1 SAH258   0.0000
    31 HB2         20.5494   -44.5412   -36.6311 H            1 SAH258   0.0000
    32 HG1         22.2577   -43.4851   -37.6944 H            1 SAH258   0.0000
    33 HG2         22.1156   -44.4071   -39.0348 H            1 SAH258   0.0000
    34 H5'1        25.6038   -44.8691   -37.2081 H            1 SAH258   0.0000
    35 H5'2        24.6522   -43.5602   -37.4269 H            1 SAH258   0.0000
    36 H4'         24.4279   -44.2338   -39.7598 H            1 SAH258   0.0000
    37 H3'         25.9531   -46.4173   -38.9575 H            1 SAH258   0.0000
    38 H12         24.9553   -45.6802   -41.4994 H            1 SAH258   0.0000
    39 H2'         27.8840   -45.3982   -39.4559 H            1 SAH258   0.0000
    40 H14         27.3771   -45.5383   -42.1596 H            1 SAH258   0.0000
    41 H1'         26.4726   -43.6529   -41.3221 H            1 SAH258   0.0000
    42 H16         28.9329   -43.1872   -38.5291 H            1 SAH258   0.0000
    43 H17         32.5999   -40.2860   -42.6034 H            1 SAH258   0.0000
    44 H18         32.4014   -40.8296   -40.9709 H            1 SAH258   0.0000
    45 H19         28.8028   -41.6656   -44.7556 H            1 SAH258   0.0000
    46 H20         20.2935   -42.6491   -39.0021 H            1 SAH258   0.0000
@<TRIPOS>BOND
     1    1    2       1
     2    2    3       1
     3    2    6       1
     4    3    4       1
     5    4    5       1
     6    5    9       1
     7    6    7      ar
     8    6    8      ar
     9    9   10       1
    10   10   11       1
    11   10   12       1
    12   11   16       1
    13   12   13       1
    14   12   14       1
    15   14   15       1
    16   14   16       1
    17   16   17       1
    18   17   18       1
    19   17   26       1
    20   18   19       2
    21   19   20       1
    22   20   21      ar
    23   20   26      ar
    24   21   22       1
    25   21   23      ar
    26   23   24      ar
    27   24   25      ar
    28   25   26      ar
    29    1   27       1
    30    1   28       1
    31    2   29       1
    32    3   30       1
    33    3   31       1
    34    4   32       1
    35    4   33       1
    36    1   46       1
    37    9   34       1
    38    9   35       1
    39   10   36       1
    40   12   37       1
    41   13   38       1
    42   14   39       1
    43   15   40       1
    44   16   41       1
    45   18   42       1
    46   22   43       1
    47   22   44       1
    48   24   45       1
@<TRIPOS>SUBSTRUCTURE
     1 SAH258      1 GROUP             4 D     SAH     0 **** SAH D 258
