@<TRIPOS>MOLECULE
./coach420/1y2v/ligand.pdb
 32 33 0 0 0
SMALL
GASTEIGER

@<TRIPOS>ATOM
      1  C1        44.0830   40.9870   46.7680 C.3   144  NGA144      0.2585
      2  C2        43.0680   41.3000   45.6550 C.3   144  NGA144      0.1810
      3  C3        41.7980   40.4560   45.6130 C.3   144  NGA144      0.1754
      4  C4        41.8410   39.1270   46.3430 C.3   144  NGA144      0.2104
      5  C5        42.8540   38.8870   47.4580 C.3   144  NGA144      0.1833
      6  C6        43.2240   37.4230   47.7080 C.3   144  NGA144      0.2142
      7  C7        43.4870   43.2510   44.3060 C.2   144  NGA144      0.2420
      8  C8        43.1710   44.6920   44.0360 C.3   144  NGA144      0.0964
      9  N2        42.8490   42.6970   45.3380 N.am  144  NGA144     -0.1994
     10  O3        41.1360   40.4490   44.3490 O.3   144  NGA144     -0.3264
     11  O4        42.4150   38.3130   45.3110 O.3   144  NGA144     -0.2178
     12  O5        43.9990   39.7380   47.4810 O.3   144  NGA144     -0.3262
     13  O6        42.1240   36.7960   48.3580 O.3   144  NGA144     -0.2176
     14  O7        44.2940   42.6370   43.6090 O.2   144  NGA144     -0.2733
     15  C1        39.7650   40.8860   44.5340 C.3   145  GAL145      0.2695
     16  C2        39.1740   41.3300   43.1890 C.3   145  GAL145      0.2406
     17  C3        37.6890   41.6700   43.3070 C.3   145  GAL145      0.2198
     18  C4        36.9180   40.5430   43.9890 C.3   145  GAL145      0.2144
     19  C5        37.5820   40.1870   45.3180 C.3   145  GAL145      0.1835
     20  C6        36.8590   39.0120   45.9700 C.3   145  GAL145      0.2142
     21  O2        39.8370   42.4680   42.7080 O.3   145  GAL145     -0.2149
     22  O3        37.1820   41.9000   42.0150 O.3   145  GAL145     -0.2174
     23  O4        36.8890   39.3930   43.1640 O.3   145  GAL145     -0.2176
     24  O5        38.9560   39.8780   45.1370 O.3   145  GAL145     -0.3256
     25  O6        37.4610   38.7160   47.2080 O.3   145  GAL145     -0.2176
     26  N         42.1340   41.1830   50.4130 N.3   146  SER146     -0.1218
     27  CA        43.2740   42.1440   50.2580 C.3   146  SER146      0.2129
     28  C         42.8140   43.5990   50.1460 C.3   146  SER146      0.4454
     29  O         41.9520   43.9380   49.3350 O.2   146  SER146     -0.2653
     30  CB        44.1940   41.7650   49.0800 C.3   146  SER146      0.1719
     31  OG        43.5020   41.5930   47.8360 O.3   146  SER146     -0.3273
     32  OXT       43.6180   44.5040   49.9070 O.2   146  SER146     -0.2653
@<TRIPOS>BOND
     1     1     2    1
     2     1    12    1
     3     1    31    1
     4     2     9    1
     5     2     3    1
     6     3    10    1
     7     3     4    1
     8     4    11    1
     9     4     5    1
    10     5    12    1
    11     5     6    1
    12     6    13    1
    13     7    14    2
    14     7     8    1
    15     7     9   am
    16    10    15    1
    17    15    16    1
    18    15    24    1
    19    16    21    1
    20    16    17    1
    21    17    22    1
    22    17    18    1
    23    18    23    1
    24    18    19    1
    25    19    24    1
    26    19    20    1
    27    20    25    1
    28    26    27    1
    29    27    30    1
    30    27    28    1
    31    28    29    1
    32    28    32    1
    33    30    31    1
