@<TRIPOS>MOLECULE
4j7h_TRH_2_ligand
   59    61     1     0     0
SMALL
NO_CHARGES


@<TRIPOS>ATOM
     1 O4P        -16.7690   -13.2530    18.9240 O.co2        1 TRH502   0.0000
     2 P2         -17.7530   -12.2300    18.4730 P.3          1 TRH502   0.0000
     3 O3P        -19.1460   -12.7630    18.2040 O.co2        1 TRH502  -1.0000
     4 O1         -17.6160   -11.0020    19.5030 O.3          1 TRH502   0.0000
     5 C1         -18.5350    -9.9220    19.6150 C.3          1 TRH502   0.0000
     6 C2         -17.8880    -8.5670    19.3750 C.3          1 TRH502   0.0000
     7 O2         -16.8000    -8.3990    20.2930 O.3          1 TRH502   0.0000
     8 C3         -18.8870    -7.4590    19.6990 C.3          1 TRH502   0.0000
     9 O3         -18.2800    -6.1600    19.5400 O.3          1 TRH502   0.0000
    10 C4         -19.5320    -7.5600    21.0870 C.3          1 TRH502   0.0000
    11 O4         -20.6100    -6.6010    21.2150 O.3          1 TRH502   0.0000
    12 C5         -20.1520    -8.9580    21.1430 C.3          1 TRH502   0.0000
    13 O5         -19.1260    -9.9340    20.9270 O.3          1 TRH502   0.0000
    14 C6         -20.7280    -9.0410    22.5450 C.3          1 TRH502   0.0000
    15 OPP        -17.3880   -11.2920    17.2050 O.3          1 TRH502   0.0000
    16 P          -15.9700   -10.9530    16.4940 P.3          1 TRH502   0.0000
    17 O1P        -16.1510    -9.6030    15.8180 O.co2        1 TRH502   0.0000
    18 O2P        -14.9060   -11.1260    17.5530 O.co2        1 TRH502  -1.0000
    19 O5'        -15.7270   -12.1080    15.4020 O.3          1 TRH502   0.0000
    20 C5'        -15.6520   -13.4530    15.8460 C.3          1 TRH502   0.0000
    21 C4'        -14.6420   -14.1390    14.9490 C.3          1 TRH502   0.0000
    22 O4'        -15.0090   -14.0340    13.5650 O.3          1 TRH502   0.0000
    23 C3'        -13.2480   -13.5560    15.1700 C.3          1 TRH502   0.0000
    24 O3'        -12.4760   -14.7620    15.3060 O.3          1 TRH502   0.0000
    25 C2'        -13.0000   -12.9310    13.8010 C.3          1 TRH502   0.0000
    26 C1'        -13.8940   -13.6430    12.7760 C.3          1 TRH502   0.0000
    27 N11        -14.3640   -12.6660    11.7840 N.pl3        1 TRH502   0.0000
    28 C21        -14.3350   -12.9840    10.4840 C.2          1 TRH502   0.0000
    29 O21        -13.9280   -14.1060    10.1010 O.2          1 TRH502   0.0000
    30 N31        -14.7550   -12.0890     9.5650 N.pl3        1 TRH502   0.0000
    31 C41        -15.2370   -10.8760     9.9060 C.2          1 TRH502   0.0000
    32 O41        -15.6270   -10.0700     9.0350 O.2          1 TRH502   0.0000
    33 C51        -15.3180   -10.5510    11.2590 C.2          1 TRH502   0.0000
    34 C5A        -15.8500    -9.2000    11.6910 C.3          1 TRH502   0.0000
    35 C61        -14.8590   -11.4900    12.1920 C.2          1 TRH502   0.0000
    36 H1         -19.2605   -10.0514    18.9390 H            1 TRH502   0.0000
    37 H2         -17.5687    -8.4900    18.4305 H            1 TRH502   0.0000
    38 H3         -15.9593    -8.7512    19.8816 H            1 TRH502   0.0000
    39 H4         -19.6247    -7.5228    19.0269 H            1 TRH502   0.0000
    40 H5         -17.5746    -6.2060    18.8327 H            1 TRH502   0.0000
    41 H6         -18.8525    -7.4375    21.8103 H            1 TRH502   0.0000
    42 H7         -20.6965    -6.0814    20.3650 H            1 TRH502   0.0000
    43 H8         -20.8755    -9.0502    20.4589 H            1 TRH502   0.0000
    44 H9         -21.1602    -9.9333    22.6755 H            1 TRH502   0.0000
    45 H10        -19.9941    -8.9251    23.2143 H            1 TRH502   0.0000
    46 H11        -21.4091    -8.3194    22.6688 H            1 TRH502   0.0000
    47 H5'1       -16.5451   -13.8953    15.7641 H            1 TRH502   0.0000
    48 H5'2       -15.3492   -13.4872    16.7984 H            1 TRH502   0.0000
    49 H4'        -14.6167   -15.1086    15.1923 H            1 TRH502   0.0000
    50 H3'        -13.1754   -12.9222    15.9401 H            1 TRH502   0.0000
    51 H16        -12.5568   -15.3055    14.4705 H            1 TRH502   0.0000
    52 H2'1       -12.0393   -13.0432    13.5472 H            1 TRH502   0.0000
    53 H2'2       -13.2261   -11.9573    13.8280 H            1 TRH502   0.0000
    54 H1'        -13.4367   -14.4245    12.3517 H            1 TRH502   0.0000
    55 H20        -14.7072   -12.3339     8.5966 H            1 TRH502   0.0000
    56 H5A1       -15.8367    -9.1402    12.6891 H            1 TRH502   0.0000
    57 H5A2       -15.2761    -8.4772    11.3061 H            1 TRH502   0.0000
    58 H5A3       -16.7883    -9.0908    11.3630 H            1 TRH502   0.0000
    59 H24        -14.9012   -11.2809    13.1690 H            1 TRH502   0.0000
@<TRIPOS>BOND
     1    1    2      ar
     2    2    3      ar
     3    2    4       1
     4    2   15       1
     5    4    5       1
     6    5    6       1
     7    5   13       1
     8    6    7       1
     9    6    8       1
    10    8    9       1
    11    8   10       1
    12   10   11       1
    13   10   12       1
    14   12   13       1
    15   12   14       1
    16   15   16       1
    17   16   17      ar
    18   16   18      ar
    19   16   19       1
    20   19   20       1
    21   20   21       1
    22   21   22       1
    23   21   23       1
    24   22   26       1
    25   23   24       1
    26   23   25       1
    27   25   26       1
    28   26   27       1
    29   27   28       1
    30   27   35       1
    31   28   29       2
    32   28   30       1
    33   30   31       1
    34   31   32       2
    35   31   33       1
    36   33   34       1
    37   33   35       2
    38   35   59       1
    39    5   36       1
    40    6   37       1
    41    7   38       1
    42    8   39       1
    43    9   40       1
    44   10   41       1
    45   11   42       1
    46   12   43       1
    47   14   44       1
    48   14   45       1
    49   14   46       1
    50   34   58       1
    51   20   47       1
    52   20   48       1
    53   21   49       1
    54   23   50       1
    55   24   51       1
    56   25   52       1
    57   25   53       1
    58   26   54       1
    59   30   55       1
    60   34   56       1
    61   34   57       1
@<TRIPOS>SUBSTRUCTURE
     1 TRH502      1 GROUP             4 A     TRH     0 **** TRH A 502
