@<TRIPOS>MOLECULE
4v01_0LI_2_ligand
   68    72     1     0     0
SMALL
NO_CHARGES


@<TRIPOS>ATOM
     1 N1          26.9110    -1.5570    22.0510 N.2          1 0LI1770   0.0000
     2 N3          29.6380     8.2800     9.7840 N.4          1 0LI1770   1.0000
     3 C4          26.3460     2.7690    20.1030 C.1          1 0LI1770   0.0000
     4 C5          25.8660     3.8310    19.2650 C.ar         1 0LI1770   0.0000
     5 C6          24.7340     4.5920    19.4870 C.ar         1 0LI1770   0.0000
     6 C7          24.3800     5.5640    18.5700 C.ar         1 0LI1770   0.0000
     7 C8          25.1270     5.7790    17.4300 C.ar         1 0LI1770   0.0000
     8 C10         26.5960     4.0330    18.1250 C.ar         1 0LI1770   0.0000
     9 C13         27.3710     6.3070    13.8950 C.ar         1 0LI1770   0.0000
    10 C15         28.0610     7.7830    12.1460 C.ar         1 0LI1770   0.0000
    11 C17         28.2120     5.4260    11.8280 C.ar         1 0LI1770   0.0000
    12 C20         28.9480     6.9770     9.9760 C.3          1 0LI1770   0.0000
    13 C21         30.9780     8.3300    10.4010 C.3          1 0LI1770   0.0000
    14 C22         31.3290     9.7950    10.4650 C.3          1 0LI1770   0.0000
    15 C24         29.7060     8.7030     8.3640 C.3          1 0LI1770   0.0000
    16 C81         28.7280    -1.3880    23.7160 C.2          1 0LI1770   0.0000
    17 C82         29.5930    -0.5380    24.2810 C.2          1 0LI1770   0.0000
    18 C83         29.5350     0.8590    23.8030 C.2          1 0LI1770   0.0000
    19 N81         28.7320     1.3350    22.9080 N.2          1 0LI1770   0.0000
    20 N82         27.9040     0.4060    22.4120 N.pl3        1 0LI1770   0.0000
    21 C84         27.8390    -0.9270    22.7380 C.2          1 0LI1770   0.0000
    22 C1          26.3550    -0.6080    21.2470 C.2          1 0LI1770   0.0000
    23 C2          26.9640     0.6110    21.4540 C.2          1 0LI1770   0.0000
    24 C3          26.6230     1.8060    20.7800 C.1          1 0LI1770   0.0000
    25 C9          26.2380     4.9970    17.2190 C.ar         1 0LI1770   0.0000
    26 C11         23.8930     4.4050    20.7030 C.3          1 0LI1770   0.0000
    27 C12         27.0910     5.1150    16.0280 C.2          1 0LI1770   0.0000
    28 O1          27.9220     4.2410    15.8480 O.2          1 0LI1770   0.0000
    29 N2          26.8370     6.1750    15.1920 N.am         1 0LI1770   0.0000
    30 C14         27.5540     7.5820    13.4140 C.ar         1 0LI1770   0.0000
    31 C16         28.3990     6.7140    11.3460 C.ar         1 0LI1770   0.0000
    32 C18         27.6990     5.2310    13.0960 C.ar         1 0LI1770   0.0000
    33 C19         28.5650     4.2230    10.9940 C.3          1 0LI1770   0.0000
    34 F1          28.2590     3.0320    11.5750 F            1 0LI1770   0.0000
    35 F2          27.9500     4.1670     9.7780 F            1 0LI1770   0.0000
    36 F3          29.9020     4.1910    10.7670 F            1 0LI1770   0.0000
    37 C23         30.1460    10.1550     8.3260 C.3          1 0LI1770   0.0000
    38 C25         32.0050    11.6040     9.0130 C.3          1 0LI1770   0.0000
    39 N4          31.4270    10.2430     9.0550 N.4          1 0LI1770   1.0000
    40 H1          23.5669     6.1220    18.7360 H            1 0LI1770   0.0000
    41 H2          24.8666     6.4866    16.7731 H            1 0LI1770   0.0000
    42 H3          27.4029     3.4686    17.9505 H            1 0LI1770   0.0000
    43 H4          28.1842     8.7148    11.8045 H            1 0LI1770   0.0000
    44 H5          29.6027     6.2511     9.7652 H            1 0LI1770   0.0000
    45 H6          28.1863     6.9370     9.3293 H            1 0LI1770   0.0000
    46 H7          31.6412     7.8347     9.8399 H            1 0LI1770   0.0000
    47 H8          30.9564     7.9341    11.3190 H            1 0LI1770   0.0000
    48 H9          32.2026     9.9245    10.9340 H            1 0LI1770   0.0000
    49 H10         30.6145    10.3046    10.9444 H            1 0LI1770   0.0000
    50 H11         28.8055     8.6103     7.9391 H            1 0LI1770   0.0000
    51 H12         30.3665     8.1355     7.8724 H            1 0LI1770   0.0000
    52 H13         28.7166    -2.3493    23.9914 H            1 0LI1770   0.0000
    53 H14         30.2402    -0.8307    24.9849 H            1 0LI1770   0.0000
    54 H15         30.1823     1.5015    24.2132 H            1 0LI1770   0.0000
    55 H16         25.6112    -0.7724    20.5991 H            1 0LI1770   0.0000
    56 H17         23.1255     5.0457    20.6793 H            1 0LI1770   0.0000
    57 H18         23.5444     3.4680    20.7263 H            1 0LI1770   0.0000
    58 H19         24.4447     4.5758    21.5194 H            1 0LI1770   0.0000
    59 H20         26.2341     6.8998    15.5256 H            1 0LI1770   0.0000
    60 H21         27.3185     8.3679    13.9858 H            1 0LI1770   0.0000
    61 H22         27.5641     4.3010    13.4380 H            1 0LI1770   0.0000
    62 H23         29.4598    10.7325     8.7683 H            1 0LI1770   0.0000
    63 H24         30.2700    10.4506     7.3788 H            1 0LI1770   0.0000
    64 H25         32.0721    11.9085     8.0628 H            1 0LI1770   0.0000
    65 H26         31.4172    12.2317     9.5234 H            1 0LI1770   0.0000
    66 H27         32.9164    11.5919     9.4243 H            1 0LI1770   0.0000
    67 H28         29.0838     8.9653    10.2565 H            1 0LI1770   0.0000
    68 H29         32.0721     9.6331     8.5947 H            1 0LI1770   0.0000
@<TRIPOS>BOND
     1    1   21       2
     2    1   22       1
     3    2   12       1
     4    2   13       1
     5    2   15       1
     6    3    4       1
     7    3   24       3
     8    4    5      ar
     9    4    8      ar
    10    5    6      ar
    11    5   26       1
    12    6    7      ar
    13    7   25      ar
    14    8   25      ar
    15    9   29       1
    16    9   30      ar
    17    9   32      ar
    18   10   30      ar
    19   10   31      ar
    20   11   31      ar
    21   11   32      ar
    22   11   33       1
    23   12   31       1
    24   13   14       1
    25   14   39       1
    26   15   37       1
    27   16   17       2
    28   16   21       1
    29   17   18       1
    30   18   19       2
    31   19   20       1
    32   20   21       1
    33   20   23       1
    34   22   23       2
    35   23   24       1
    36   25   27       1
    37   27   28       2
    38   27   29      am
    39   33   34       1
    40   33   35       1
    41   33   36       1
    42   37   39       1
    43   38   39       1
    44    6   40       1
    45    7   41       1
    46    8   42       1
    47   10   43       1
    48   12   44       1
    49   12   45       1
    50   13   46       1
    51   13   47       1
    52   14   48       1
    53   14   49       1
    54   15   50       1
    55   15   51       1
    56   16   52       1
    57   17   53       1
    58   18   54       1
    59   22   55       1
    60   26   56       1
    61   26   57       1
    62   26   58       1
    63   29   59       1
    64   30   60       1
    65   32   61       1
    66   37   62       1
    67   37   63       1
    68   38   64       1
    69   38   65       1
    70   38   66       1
    71    2   67       1
    72   39   68       1
@<TRIPOS>SUBSTRUCTURE
     1 0LI1770     1 GROUP             4 B     0LI     0 **** 0LI B1770
