@<TRIPOS>MOLECULE
3uwl_FOZ_2_ligand
   55    57     1     0     0
SMALL
NO_CHARGES


@<TRIPOS>ATOM
     1 C           51.6200    18.2640    24.3850 C.2          1 FOZ316   0.0000
     2 N           51.7030    18.1580    25.7230 N.am         1 FOZ316   0.0000
     3 O           52.3610    17.5970    23.6520 O.2          1 FOZ316   0.0000
     4 N1          46.7610    18.7210    18.1400 N.2          1 FOZ316   0.0000
     5 O1          52.6530    15.7820    28.2920 O.co2        1 FOZ316   0.0000
     6 C2          46.3840    17.6400    18.8540 C.2          1 FOZ316   0.0000
     7 O2          51.1460    17.3440    28.2560 O.co2        1 FOZ316  -1.0000
     8 N3          45.7800    17.7360    20.0740 N.pl3        1 FOZ316   0.0000
     9 O3          44.2530    22.6490    21.6240 O.2          1 FOZ316   0.0000
    10 C4          45.5540    18.9540    20.6480 C.2          1 FOZ316   0.0000
    11 O4          45.0120    19.0720    21.7590 O.2          1 FOZ316   0.0000
    12 N5          45.7800    21.4690    20.4780 N.am         1 FOZ316   0.0000
    13 C6          46.6860    22.5000    19.8730 C.3          1 FOZ316   0.0000
    14 C7          46.7360    22.4070    18.3360 C.3          1 FOZ316   0.0000
    15 N8          47.0010    21.0530    17.8740 N.pl3        1 FOZ316   0.0000
    16 C9          48.1110    22.3160    20.4350 C.3          1 FOZ316   0.0000
    17 CA          52.5920    17.1970    26.3780 C.3          1 FOZ316   0.0000
    18 CB          54.0360    17.6850    26.4820 C.3          1 FOZ316   0.0000
    19 CD          55.5350    19.4920    27.2470 C.2          1 FOZ316   0.0000
    20 CG          54.1000    19.0140    27.2090 C.3          1 FOZ316   0.0000
    21 CT          52.0970    16.7490    27.7340 C.2          1 FOZ316   0.0000
    22 N10         48.0760    21.9130    21.8410 N.pl3        1 FOZ316   0.0000
    23 C11         50.6550    19.2310    23.7410 C.ar         1 FOZ316   0.0000
    24 C12         49.7390    19.9750    24.4880 C.ar         1 FOZ316   0.0000
    25 C13         48.8690    20.8840    23.8560 C.ar         1 FOZ316   0.0000
    26 C14         48.9230    21.0380    22.4450 C.ar         1 FOZ316   0.0000
    27 C15         49.8550    20.2920    21.6990 C.ar         1 FOZ316   0.0000
    28 C16         50.7080    19.4000    22.3470 C.ar         1 FOZ316   0.0000
    29 C4A         45.9420    20.1720    19.9100 C.2          1 FOZ316   0.0000
    30 C8A         46.5860    19.9730    18.5880 C.2          1 FOZ316   0.0000
    31 NA2         46.5860    16.4270    18.3050 N.pl3        1 FOZ316   0.0000
    32 OE1         55.9820    20.0260    26.2140 O.co2        1 FOZ316   0.0000
    33 OE2         56.2250    19.3430    28.2990 O.co2        1 FOZ316  -1.0000
    34 CP1         44.4560    21.8840    20.7010 C.2          1 FOZ316   0.0000
    35 H1          51.1376    18.7566    26.2904 H            1 FOZ316   0.0000
    36 H2          46.3548    23.4082    20.1290 H            1 FOZ316   0.0000
    37 H3          47.4607    23.0090    18.0006 H            1 FOZ316   0.0000
    38 H4          45.8563    22.7066    17.9667 H            1 FOZ316   0.0000
    39 H5          47.4968    20.9144    17.0167 H            1 FOZ316   0.0000
    40 H6          48.6074    23.1805    20.3555 H            1 FOZ316   0.0000
    41 H7          48.5824    21.6110    19.9050 H            1 FOZ316   0.0000
    42 HA          52.6079    16.3828    25.7977 H            1 FOZ316   0.0000
    43 HB1         54.4125    17.7953    25.5622 H            1 FOZ316   0.0000
    44 HB2         54.5757    17.0094    26.9843 H            1 FOZ316   0.0000
    45 HG1         53.7603    18.9011    28.1427 H            1 FOZ316   0.0000
    46 HG2         53.5364    19.6857    26.7282 H            1 FOZ316   0.0000
    47 H13         47.3620    22.3194    22.4112 H            1 FOZ316   0.0000
    48 H14         49.7007    19.8611    25.4808 H            1 FOZ316   0.0000
    49 H15         48.2180    21.4171    24.3964 H            1 FOZ316   0.0000
    50 H16         49.9050    20.4017    20.7063 H            1 FOZ316   0.0000
    51 H17         51.3676    18.8724    21.8117 H            1 FOZ316   0.0000
    52 HA21        46.3198    15.6020    18.8034 H            1 FOZ316   0.0000
    53 HA22        47.0022    16.3513    17.3989 H            1 FOZ316   0.0000
    54 HP1         43.7076    21.5617    20.1213 H            1 FOZ316   0.0000
    55 H21         45.4996    16.9043    20.5533 H            1 FOZ316   0.0000
@<TRIPOS>BOND
     1    1    2      am
     2    1    3       2
     3    1   23       1
     4    2   17       1
     5    4    6       2
     6    4   30       1
     7    5   21      ar
     8    6    8       1
     9    6   31       1
    10    7   21      ar
    11    8   10       1
    12    9   34       2
    13   10   11       2
    14   10   29       1
    15   12   13       1
    16   12   29       1
    17   12   34      am
    18   13   14       1
    19   13   16       1
    20   14   15       1
    21   15   30       1
    22   16   22       1
    23   17   18       1
    24   17   21       1
    25   18   20       1
    26   19   20       1
    27   19   32      ar
    28   19   33      ar
    29   22   26       1
    30   23   24      ar
    31   23   28      ar
    32   24   25      ar
    33   25   26      ar
    34   26   27      ar
    35   27   28      ar
    36   29   30       2
    37    2   35       1
    38   34   54       1
    39    8   55       1
    40   13   36       1
    41   14   37       1
    42   14   38       1
    43   15   39       1
    44   16   40       1
    45   16   41       1
    46   17   42       1
    47   18   43       1
    48   18   44       1
    49   20   45       1
    50   20   46       1
    51   22   47       1
    52   24   48       1
    53   25   49       1
    54   27   50       1
    55   28   51       1
    56   31   52       1
    57   31   53       1
@<TRIPOS>SUBSTRUCTURE
     1 FOZ316      1 GROUP             4 D     FOZ     0 **** FOZ D 316
