@<TRIPOS>MOLECULE
4j5r_A1R_1_ligand
   58    61     1     0     0
SMALL
NO_CHARGES


@<TRIPOS>ATOM
     1 N1           0.1070    63.3860    11.5710 N.ar         1 A1R201   0.0000
     2 C2           1.3720    62.8460    11.4880 C.ar         1 A1R201   0.0000
     3 N3           2.3350    63.3730    10.6610 N.ar         1 A1R201   0.0000
     4 C4           1.8940    64.4250     9.9780 C.ar         1 A1R201   0.0000
     5 C5           0.6890    65.0500    10.0420 C.ar         1 A1R201   0.0000
     6 C6          -0.2020    64.4920    10.8950 C.ar         1 A1R201   0.0000
     7 N6          -1.5190    64.9580    11.0540 N.pl3        1 A1R201   0.0000
     8 N7           0.6690    66.1060     9.2070 N.2          1 A1R201   0.0000
     9 C8           1.8670    66.1920     8.6780 C.2          1 A1R201   0.0000
    10 N9           2.6250    65.1510     9.0760 N.pl3        1 A1R201   0.0000
    11 C1'          4.0110    64.8860     8.6780 C.3          1 A1R201   0.0000
    12 C2'          4.3980    65.2460     7.2440 C.3          1 A1R201   0.0000
    13 O2'          3.9140    64.3350     6.3150 O.3          1 A1R201   0.0000
    14 C3'          5.8280    65.2040     7.4340 C.3          1 A1R201   0.0000
    15 O3'          6.4770    64.0790     7.1240 O.3          1 A1R201   0.0000
    16 O4'          4.9400    65.5700     9.4870 O.3          1 A1R201   0.0000
    17 C4'          6.1040    65.8590     8.7090 C.3          1 A1R201   0.0000
    18 C5'          6.4040    67.3470     8.7590 C.3          1 A1R201   0.0000
    19 O5'          5.4460    68.0530     7.9790 O.3          1 A1R201   0.0000
    20 PA           4.6630    69.3150     8.5810 P.3          1 A1R201   0.0000
    21 O1A          3.8650    68.8740     9.7350 O.co2        1 A1R201   0.0000
    22 O2A          4.0270    69.9130     7.3990 O.co2        1 A1R201  -1.0000
    23 O3A          5.8600    70.1890     9.1780 O.3          1 A1R201   0.0000
    24 PB           6.9190    71.2030     8.4770 P.3          1 A1R201   0.0000
    25 O1B          7.1800    70.7890     7.0850 O.co2        1 A1R201   0.0000
    26 O2B          8.0240    71.2690     9.4730 O.co2        1 A1R201  -1.0000
    27 O5N          6.1130    72.5530     8.4270 O.3          1 A1R201   0.0000
    28 C5N          5.9620    73.3600     9.5890 C.3          1 A1R201   0.0000
    29 N4N          3.5390    73.8270     9.2520 N.4          1 A1R201   1.0000
    30 C1N          2.8050    74.2300    10.4580 C.3          1 A1R201   0.0000
    31 O2N          3.3040    75.6440    12.3850 O.3          1 A1R201   0.0000
    32 C2N          3.8510    74.8150    11.3850 C.3          1 A1R201   0.0000
    33 O3N          4.2740    76.7060     9.9460 O.3          1 A1R201   0.0000
    34 C3N          4.7960    75.4640    10.4290 C.3          1 A1R201   0.0000
    35 C4N          4.9340    74.4210     9.3410 C.3          1 A1R201   0.0000
    36 H1           1.5960    62.0470    12.0460 H            1 A1R201   0.0000
    37 H2          -1.8186    65.7833    10.5753 H            1 A1R201   0.0000
    38 H3          -2.1561    64.4641    11.6457 H            1 A1R201   0.0000
    39 H4           2.1729    66.9233     8.0684 H            1 A1R201   0.0000
    40 H1'          4.1747    63.9066     8.7959 H            1 A1R201   0.0000
    41 H2'          4.0984    66.1732     7.0192 H            1 A1R201   0.0000
    42 H7           2.9157    64.3062     6.3652 H            1 A1R201   0.0000
    43 H3'          6.1690    65.8594     6.7601 H            1 A1R201   0.0000
    44 H9           6.9369    63.7244     7.9381 H            1 A1R201   0.0000
    45 H4'          6.8747    65.3822     9.1318 H            1 A1R201   0.0000
    46 H5'1         7.3196    67.5145     8.3934 H            1 A1R201   0.0000
    47 H5'2         6.3604    67.6637     9.7065 H            1 A1R201   0.0000
    48 H5N1         6.8370    73.7909     9.8098 H            1 A1R201   0.0000
    49 H5N2         5.6698    72.7874    10.3550 H            1 A1R201   0.0000
    50 H4N1         3.0727    74.1730     8.4379 H            1 A1R201   0.0000
    51 H1N1         2.3651    73.4381    10.8815 H            1 A1R201   0.0000
    52 H1N2         2.1125    74.9158    10.2339 H            1 A1R201   0.0000
    53 H2N          3.0865    75.0943    13.1916 H            1 A1R201   0.0000
    54 H19          4.3293    74.0595    11.8327 H            1 A1R201   0.0000
    55 H3N          4.5662    77.4477    10.5497 H            1 A1R201   0.0000
    56 H21          5.6799    75.6144    10.8718 H            1 A1R201   0.0000
    57 H4N          5.1453    74.8802     8.4782 H            1 A1R201   0.0000
    58 H4N2         3.5957    72.8297     9.2051 H            1 A1R201   0.0000
@<TRIPOS>BOND
     1    1    2      ar
     2    1    6      ar
     3    2    3      ar
     4    3    4      ar
     5    4    5      ar
     6    4   10       1
     7    5    6      ar
     8    5    8       1
     9    6    7       1
    10    8    9       2
    11    9   10       1
    12   10   11       1
    13   11   12       1
    14   11   16       1
    15   12   13       1
    16   12   14       1
    17   14   15       1
    18   14   17       1
    19   16   17       1
    20   17   18       1
    21   18   19       1
    22   19   20       1
    23   20   21      ar
    24   20   22      ar
    25   20   23       1
    26   23   24       1
    27   24   25      ar
    28   24   26      ar
    29   24   27       1
    30   27   28       1
    31   28   35       1
    32   29   30       1
    33   29   35       1
    34   30   32       1
    35   31   32       1
    36   32   34       1
    37   33   34       1
    38   34   35       1
    39    2   36       1
    40    7   37       1
    41    7   38       1
    42    9   39       1
    43   11   40       1
    44   12   41       1
    45   13   42       1
    46   14   43       1
    47   15   44       1
    48   17   45       1
    49   18   46       1
    50   18   47       1
    51   35   57       1
    52   34   56       1
    53   28   48       1
    54   28   49       1
    55   29   50       1
    56   30   51       1
    57   30   52       1
    58   31   53       1
    59   32   54       1
    60   33   55       1
    61   29   58       1
@<TRIPOS>SUBSTRUCTURE
     1 A1R201      1 GROUP             4 A     A1R     0 **** A1R A 201
