@<TRIPOS>MOLECULE
1p4a_PCP_1_ligand
   32    32     1     0     0
SMALL
NO_CHARGES


@<TRIPOS>ATOM
     1 C1          44.4920    80.6150    61.2930 C.3          1 PCP604   0.0000
     2 C2          44.7580    79.1680    61.6750 C.3          1 PCP604   0.0000
     3 C3          45.7350    79.1700    62.8400 C.3          1 PCP604   0.0000
     4 C4          46.0880    80.6170    63.1550 C.3          1 PCP604   0.0000
     5 C5          45.3360    81.5140    62.1830 C.3          1 PCP604   0.0000
     6 CP          47.5820    80.8690    63.0300 C.3          1 PCP604   0.0000
     7 O1          43.1170    80.8970    61.5070 O.3          1 PCP604   0.0000
     8 O2          45.3000    78.4760    60.5630 O.3          1 PCP604   0.0000
     9 O3          46.9040    78.4340    62.5120 O.3          1 PCP604   0.0000
    10 OP          48.1220    81.1720    64.3130 O.3          1 PCP604   0.0000
    11 P           48.7510    80.0180    65.2390 P.3          1 PCP604   0.0000
    12 O1P         47.5780    79.5290    66.0450 O.co2        1 PCP604   0.0000
    13 O2P         49.3110    79.0140    64.2630 O.co2        1 PCP604  -1.0000
    14 O3P         49.7940    80.7290    66.0620 O.co2        1 PCP604  -1.0000
    15 PA          42.0220    80.4500    60.4180 P.3          1 PCP604   0.0000
    16 O1A         42.7370    80.1520    59.1210 O.co2        1 PCP604   0.0000
    17 O2A         41.1290    79.4040    61.0430 O.co2        1 PCP604  -1.0000
    18 O3A         41.1850    81.8130    60.2410 O.3          1 PCP604   0.0000
    19 PB          39.6090    81.7990    59.9310 P.3          1 PCP604   0.0000
    20 O1B         38.9720    81.3990    61.2390 O.co2        1 PCP604   0.0000
    21 O2B         39.4620    80.7790    58.8320 O.co2        1 PCP604  -1.0000
    22 O3B         39.3440    83.2190    59.4990 O.co2        1 PCP604  -1.0000
    23 H1          44.7273    80.7649    60.3327 H            1 PCP604   0.0000
    24 H2          43.9025    78.7329    61.9559 H            1 PCP604   0.0000
    25 H3          45.2975    78.7559    63.6382 H            1 PCP604   0.0000
    26 H4          45.7973    80.8291    64.0880 H            1 PCP604   0.0000
    27 H5          44.7471    82.1459    62.6869 H            1 PCP604   0.0000
    28 H6          45.9841    82.0341    61.6268 H            1 PCP604   0.0000
    29 HP1         47.7395    81.6391    62.4118 H            1 PCP604   0.0000
    30 HP2         48.0284    80.0519    62.6651 H            1 PCP604   0.0000
    31 H9          45.4746    77.5243    60.8155 H            1 PCP604   0.0000
    32 H10         47.0702    78.4936    61.5277 H            1 PCP604   0.0000
@<TRIPOS>BOND
     1    1    2       1
     2    1    5       1
     3    1    7       1
     4    2    3       1
     5    2    8       1
     6    3    4       1
     7    3    9       1
     8    4    5       1
     9    4    6       1
    10    6   10       1
    11    7   15       1
    12   10   11       1
    13   11   12      ar
    14   11   13      ar
    15   11   14      ar
    16   15   16      ar
    17   15   17      ar
    18   15   18       1
    19   18   19       1
    20   19   20      ar
    21   19   21      ar
    22   19   22      ar
    23    1   23       1
    24    2   24       1
    25    3   25       1
    26    4   26       1
    27    5   27       1
    28    5   28       1
    29    6   29       1
    30    6   30       1
    31    8   31       1
    32    9   32       1
@<TRIPOS>SUBSTRUCTURE
     1 PCP604      1 GROUP             4 A     PCP     0 **** PCP A 604
