@<TRIPOS>MOLECULE
4lcj_NAD_7_ligand
   70    74     1     0     0
SMALL
NO_CHARGES


@<TRIPOS>ATOM
     1 PA          11.9670   -22.8090    55.1300 P.3          1 NAD401   0.0000
     2 O1A         11.4550   -21.5870    55.8570 O.co2        1 NAD401   0.0000
     3 O2A         13.3920   -23.2660    55.3760 O.co2        1 NAD401  -1.0000
     4 O5B         11.8170   -22.6600    53.5390 O.3          1 NAD401   0.0000
     5 C5B         10.9490   -21.6800    53.0220 C.3          1 NAD401   0.0000
     6 C4B         11.5470   -21.2280    51.7140 C.3          1 NAD401   0.0000
     7 O4B         10.5000   -20.9270    50.7920 O.3          1 NAD401   0.0000
     8 C3B         12.3870   -19.9710    51.9060 C.3          1 NAD401   0.0000
     9 O3B         13.7090   -20.2010    51.3760 O.3          1 NAD401   0.0000
    10 C2B         11.6030   -18.8980    51.1660 C.3          1 NAD401   0.0000
    11 O2B         12.4310   -17.9120    50.5330 O.3          1 NAD401   0.0000
    12 C1B         10.8230   -19.7060    50.1400 C.3          1 NAD401   0.0000
    13 N9A          9.6140   -19.0000    49.7030 N.pl3        1 NAD401   0.0000
    14 C8A          8.7050   -18.3910    50.4910 C.2          1 NAD401   0.0000
    15 N7A          7.7280   -17.8390    49.7270 N.2          1 NAD401   0.0000
    16 C5A          8.0270   -18.0980    48.4400 C.ar         1 NAD401   0.0000
    17 C6A          7.4360   -17.8030    47.1220 C.ar         1 NAD401   0.0000
    18 N6A          6.2880   -17.1050    47.0190 N.pl3        1 NAD401   0.0000
    19 N1A          8.0760   -18.2600    46.0280 N.ar         1 NAD401   0.0000
    20 C2A          9.2190   -18.9610    46.1080 C.ar         1 NAD401   0.0000
    21 N3A          9.8140   -19.2590    47.2720 N.ar         1 NAD401   0.0000
    22 C4A          9.2750   -18.8620    48.4360 C.ar         1 NAD401   0.0000
    23 O3          10.8140   -23.8930    55.4100 O.3          1 NAD401   0.0000
    24 PN          10.7330   -25.4670    55.0680 P.3          1 NAD401   0.0000
    25 O1N         11.3050   -25.7600    53.7060 O.co2        1 NAD401   0.0000
    26 O2N         11.2200   -26.2270    56.2940 O.co2        1 NAD401  -1.0000
    27 O5D          9.1280   -25.5700    55.0530 O.3          1 NAD401   0.0000
    28 C5D          8.3760   -25.4480    53.8630 C.3          1 NAD401   0.0000
    29 C4D          6.8920   -25.3490    54.2070 C.3          1 NAD401   0.0000
    30 O4D          6.2190   -26.6040    54.0590 O.3          1 NAD401   0.0000
    31 C3D          6.6230   -24.9120    55.6330 C.3          1 NAD401   0.0000
    32 O3D          6.4690   -23.4980    55.6510 O.3          1 NAD401   0.0000
    33 C2D          5.3480   -25.6180    56.0360 C.3          1 NAD401   0.0000
    34 O2D          4.2000   -24.7790    55.8670 O.3          1 NAD401   0.0000
    35 C1D          5.2350   -26.7930    55.0830 C.3          1 NAD401   0.0000
    36 N1N          5.4600   -28.0660    55.7850 N.ar         1 NAD401   1.0000
    37 C2N          4.5350   -29.0390    55.7630 C.ar         1 NAD401   0.0000
    38 C3N          4.7550   -30.2520    56.4200 C.ar         1 NAD401   0.0000
    39 C7N          3.7190   -31.3390    56.3870 C.2          1 NAD401   0.0000
    40 O7N          3.3670   -31.8640    57.4210 O.2          1 NAD401   0.0000
    41 N7N          3.1810   -31.7000    55.2270 N.am         1 NAD401   0.0000
    42 C4N          5.9500   -30.4470    57.0920 C.ar         1 NAD401   0.0000
    43 C5N          6.8820   -29.4220    57.0930 C.ar         1 NAD401   0.0000
    44 C6N          6.6150   -28.2410    56.4240 C.ar         1 NAD401   0.0000
    45 H5B1        10.8810   -20.9094    53.6557 H            1 NAD401   0.0000
    46 H5B2        10.0400   -22.0684    52.8707 H            1 NAD401   0.0000
    47 H4B         12.1200   -21.9574    51.3403 H            1 NAD401   0.0000
    48 H3B         12.4436   -19.7433    52.8781 H            1 NAD401   0.0000
    49 H5          13.6446   -20.4169    50.4017 H            1 NAD401   0.0000
    50 H2B         10.9679   -18.4505    51.7956 H            1 NAD401   0.0000
    51 H7          12.6472   -18.2062    49.6020 H            1 NAD401   0.0000
    52 H1B         11.4053   -19.8932    49.3489 H            1 NAD401   0.0000
    53 H8A          8.7446   -18.3518    51.4894 H            1 NAD401   0.0000
    54 H6A1         5.8990   -16.9125    46.1181 H            1 NAD401   0.0000
    55 H6A2         5.8251   -16.7795    47.8435 H            1 NAD401   0.0000
    56 H2A          9.6460   -19.2752    45.2601 H            1 NAD401   0.0000
    57 H5D1         8.5318   -26.2501    53.2865 H            1 NAD401   0.0000
    58 H5D2         8.6601   -24.6244    53.3721 H            1 NAD401   0.0000
    59 H4D          6.4675   -24.6878    53.5884 H            1 NAD401   0.0000
    60 H3D          7.3768   -25.1876    56.2295 H            1 NAD401   0.0000
    61 H17          6.2906   -23.1940    56.5868 H            1 NAD401   0.0000
    62 H2D          5.4101   -25.9392    56.9810 H            1 NAD401   0.0000
    63 H19          3.5042   -25.0263    56.5413 H            1 NAD401   0.0000
    64 H1D          4.3241   -26.7986    54.6703 H            1 NAD401   0.0000
    65 H2N          3.6773   -28.8934    55.2698 H            1 NAD401   0.0000
    66 H7N1         2.4908   -32.4231    55.1994 H            1 NAD401   0.0000
    67 H7N2         3.4662   -31.2486    54.3815 H            1 NAD401   0.0000
    68 H4N          6.1359   -31.3079    57.5656 H            1 NAD401   0.0000
    69 H5N          7.7490   -29.5360    57.5780 H            1 NAD401   0.0000
    70 H6N          7.2975   -27.5101    56.4202 H            1 NAD401   0.0000
@<TRIPOS>BOND
     1    1    2      ar
     2    1    3      ar
     3    1    4       1
     4    1   23       1
     5    4    5       1
     6    5    6       1
     7    6    7       1
     8    6    8       1
     9    7   12       1
    10    8    9       1
    11    8   10       1
    12   10   11       1
    13   10   12       1
    14   12   13       1
    15   13   14       1
    16   13   22       1
    17   14   15       2
    18   15   16       1
    19   16   17      ar
    20   16   22      ar
    21   17   18       1
    22   17   19      ar
    23   19   20      ar
    24   20   21      ar
    25   21   22      ar
    26   23   24       1
    27   24   25      ar
    28   24   26      ar
    29   24   27       1
    30   27   28       1
    31   28   29       1
    32   29   30       1
    33   29   31       1
    34   30   35       1
    35   31   32       1
    36   31   33       1
    37   33   34       1
    38   33   35       1
    39   35   36       1
    40   36   37      ar
    41   36   44      ar
    42   37   38      ar
    43   38   39       1
    44   38   42      ar
    45   39   40       2
    46   39   41      am
    47   42   43      ar
    48   43   44      ar
    49   44   70       1
    50    5   45       1
    51    5   46       1
    52    6   47       1
    53    8   48       1
    54    9   49       1
    55   10   50       1
    56   11   51       1
    57   12   52       1
    58   14   53       1
    59   18   54       1
    60   18   55       1
    61   20   56       1
    62   43   69       1
    63   28   57       1
    64   28   58       1
    65   29   59       1
    66   31   60       1
    67   32   61       1
    68   33   62       1
    69   34   63       1
    70   35   64       1
    71   37   65       1
    72   41   66       1
    73   41   67       1
    74   42   68       1
@<TRIPOS>SUBSTRUCTURE
     1 NAD401      1 GROUP             4 E     NAD     0 **** NAD E 401
