@<TRIPOS>MOLECULE
3ju8_NAD_2_ligand
   64    68     1     0     0
SMALL
NO_CHARGES


@<TRIPOS>ATOM
     1 PA         -13.0440    29.1240    35.2240 P.3          1 NAD501   0.0000
     2 O1A        -11.9010    29.8970    35.8970 O.co2        1 NAD501   0.0000
     3 O2A        -13.9540    30.1560    34.6150 O.co2        1 NAD501  -1.0000
     4 O5B        -13.9060    28.2310    36.2340 O.3          1 NAD501   0.0000
     5 C5B        -13.5940    26.9840    36.8410 C.3          1 NAD501   0.0000
     6 C4B        -14.2950    26.9290    38.2050 C.3          1 NAD501   0.0000
     7 O4B        -13.8910    27.8140    39.2790 O.3          1 NAD501   0.0000
     8 C3B        -15.7580    26.5920    38.6580 C.3          1 NAD501   0.0000
     9 O3B        -16.3820    25.4320    39.1330 O.3          1 NAD501   0.0000
    10 C2B        -16.2660    27.9600    38.9910 C.2          1 NAD501   0.0000
    11 O2B        -17.5820    28.3120    39.0880 O.2          1 NAD501   0.0000
    12 C1B        -15.0600    28.6450    39.6220 C.3          1 NAD501   0.0000
    13 N9A        -15.2020    30.0750    39.7720 N.pl3        1 NAD501   0.0000
    14 C8A        -15.5100    30.9070    38.7660 C.2          1 NAD501   0.0000
    15 N7A        -15.4330    32.2020    39.2440 N.2          1 NAD501   0.0000
    16 C5A        -15.0700    32.1410    40.5450 C.ar         1 NAD501   0.0000
    17 C6A        -14.8530    33.1370    41.4600 C.ar         1 NAD501   0.0000
    18 N6A        -15.0290    34.5300    41.0480 N.pl3        1 NAD501   0.0000
    19 N1A        -14.4710    32.8260    42.7020 N.ar         1 NAD501   0.0000
    20 C2A        -14.3200    31.5080    43.0830 C.ar         1 NAD501   0.0000
    21 N3A        -14.5450    30.5300    42.1680 N.ar         1 NAD501   0.0000
    22 C4A        -14.9130    30.8380    40.9050 C.ar         1 NAD501   0.0000
    23 O3         -12.4370    28.2680    34.0570 O.3          1 NAD501   0.0000
    24 PN         -13.4770    27.7720    32.9770 P.3          1 NAD501   0.0000
    25 O1N        -14.1540    29.0370    32.3040 O.co2        1 NAD501   0.0000
    26 O2N        -14.5180    26.8910    33.6660 O.co2        1 NAD501  -1.0000
    27 O5D        -12.6730    27.0530    31.8510 O.3          1 NAD501   0.0000
    28 C5D        -11.7440    27.8470    31.2020 C.3          1 NAD501   0.0000
    29 C4D        -10.3470    27.4320    31.5240 C.3          1 NAD501   0.0000
    30 O4D        -10.0670    26.1150    32.0700 O.3          1 NAD501   0.0000
    31 C3D         -9.0170    28.0180    30.9830 C.2          1 NAD501   0.0000
    32 O3D         -8.5260    29.3150    31.0640 O.2          1 NAD501   0.0000
    33 C2D         -8.2400    26.7890    30.6460 C.2          1 NAD501   0.0000
    34 O2D         -7.1720    26.6280    29.8050 O.2          1 NAD501   0.0000
    35 C1D         -8.7080    25.7670    31.6630 C.3          1 NAD501   0.0000
    36 N1N         -8.1500    24.4510    31.7940 N.ar         1 NAD501   1.0000
    37 C2N         -6.9970    24.1490    32.4460 C.ar         1 NAD501   0.0000
    38 C3N         -6.6340    22.7700    32.4770 C.ar         1 NAD501   0.0000
    39 C7N         -5.4560    22.1710    33.1610 C.2          1 NAD501   0.0000
    40 O7N         -5.6200    20.9930    33.4490 O.2          1 NAD501   0.0000
    41 N7N         -4.1990    22.8150    33.3950 N.am         1 NAD501   0.0000
    42 C4N         -7.4530    21.8110    31.8870 C.ar         1 NAD501   0.0000
    43 C5N         -8.6150    22.1440    31.2200 C.ar         1 NAD501   0.0000
    44 C6N         -8.9810    23.4590    31.1720 C.ar         1 NAD501   0.0000
    45 H5B1       -12.6048    26.9054    36.9649 H            1 NAD501   0.0000
    46 H5B2       -13.9181    26.2351    36.2629 H            1 NAD501   0.0000
    47 H4B        -13.8560    26.0978    38.5461 H            1 NAD501   0.0000
    48 H3B        -16.1485    26.5542    37.7382 H            1 NAD501   0.0000
    49 H5         -16.3109    24.7097    38.4451 H            1 NAD501   0.0000
    50 H1B        -15.1891    28.3649    40.5732 H            1 NAD501   0.0000
    51 H8A        -15.7527    30.6379    37.8340 H            1 NAD501   0.0000
    52 H6A1       -14.8745    35.2688    41.7040 H            1 NAD501   0.0000
    53 H6A2       -15.3038    34.7432    40.1104 H            1 NAD501   0.0000
    54 H2A        -14.0493    31.2770    44.0176 H            1 NAD501   0.0000
    55 H5D1       -11.8741    28.7970    31.4859 H            1 NAD501   0.0000
    56 H5D2       -11.8857    27.7717    30.2150 H            1 NAD501   0.0000
    57 H4D        -10.3083    27.9077    32.4027 H            1 NAD501   0.0000
    58 H1D         -8.2442    26.1686    32.4527 H            1 NAD501   0.0000
    59 H2N         -6.4349    24.8534    32.8795 H            1 NAD501   0.0000
    60 H7N1        -3.4659    22.3245    33.8662 H            1 NAD501   0.0000
    61 H7N2        -4.0540    23.7554    33.0873 H            1 NAD501   0.0000
    62 H4N         -7.1906    20.8480    31.9485 H            1 NAD501   0.0000
    63 H5N         -9.1747    21.4400    30.7829 H            1 NAD501   0.0000
    64 H6N         -9.8234    23.7295    30.7060 H            1 NAD501   0.0000
@<TRIPOS>BOND
     1    1    2      ar
     2    1    3      ar
     3    1    4       1
     4    1   23       1
     5    4    5       1
     6    5    6       1
     7    6    7       1
     8    6    8       1
     9    7   12       1
    10    8    9       1
    11    8   10       1
    12   10   11       2
    13   10   12       1
    14   12   13       1
    15   13   14       1
    16   13   22       1
    17   14   15       2
    18   15   16       1
    19   16   17      ar
    20   16   22      ar
    21   17   18       1
    22   17   19      ar
    23   19   20      ar
    24   20   21      ar
    25   21   22      ar
    26   23   24       1
    27   24   25      ar
    28   24   26      ar
    29   24   27       1
    30   27   28       1
    31   28   29       1
    32   29   30       1
    33   29   31       1
    34   30   35       1
    35   31   32       2
    36   31   33       1
    37   33   34       2
    38   33   35       1
    39   35   36       1
    40   36   37      ar
    41   36   44      ar
    42   37   38      ar
    43   38   39       1
    44   38   42      ar
    45   39   40       2
    46   39   41      am
    47   42   43      ar
    48   43   44      ar
    49   44   64       1
    50    5   45       1
    51    5   46       1
    52    6   47       1
    53    8   48       1
    54    9   49       1
    55   12   50       1
    56   14   51       1
    57   18   52       1
    58   18   53       1
    59   20   54       1
    60   43   63       1
    61   28   55       1
    62   28   56       1
    63   29   57       1
    64   35   58       1
    65   37   59       1
    66   41   60       1
    67   41   61       1
    68   42   62       1
@<TRIPOS>SUBSTRUCTURE
     1 NAD501      1 GROUP             4 B     NAD     0 **** NAD B 501
