@<TRIPOS>MOLECULE
4g01_GDP_1_ligand
   40    42     1     0     0
SMALL
NO_CHARGES


@<TRIPOS>ATOM
     1 PB           6.8460     8.9820     0.1410 P.3          1 GDP200   0.0000
     2 O1B          8.3550     8.7040     0.0450 O.co2        1 GDP200   0.0000
     3 O2B          6.1080     7.8680    -0.5600 O.co2        1 GDP200  -1.0000
     4 O3B          6.4610     8.9810     1.5960 O.co2        1 GDP200  -1.0000
     5 O3A          6.6330    10.4450    -0.5060 O.3          1 GDP200   0.0000
     6 PA           5.4860    10.9670    -1.5060 P.3          1 GDP200   0.0000
     7 O1A          5.6180    10.3540    -2.8480 O.co2        1 GDP200   0.0000
     8 O2A          4.0810    10.7290    -1.0420 O.co2        1 GDP200  -1.0000
     9 O5'          5.8850    12.5320    -1.5170 O.3          1 GDP200   0.0000
    10 C5'          5.8380    13.3910    -0.3700 C.3          1 GDP200   0.0000
    11 C4'          5.1860    14.7120    -0.7800 C.3          1 GDP200   0.0000
    12 O4'          6.1220    15.4680    -1.5360 O.3          1 GDP200   0.0000
    13 C3'          3.9780    14.5010    -1.6820 C.3          1 GDP200   0.0000
    14 O3'          3.0020    15.5000    -1.4140 O.3          1 GDP200   0.0000
    15 C2'          4.4660    14.7870    -3.0650 C.3          1 GDP200   0.0000
    16 O2'          3.4000    15.3410    -3.8310 O.3          1 GDP200   0.0000
    17 C1'          5.5890    15.7840    -2.8140 C.3          1 GDP200   0.0000
    18 N9           6.6870    15.5690    -3.7630 N.pl3        1 GDP200   0.0000
    19 C8           7.1960    14.3610    -4.1070 C.2          1 GDP200   0.0000
    20 N7           8.2160    14.5060    -4.9790 N.2          1 GDP200   0.0000
    21 C5           8.3650    15.8420    -5.1980 C.2          1 GDP200   0.0000
    22 C6           9.2610    16.6880    -6.0140 C.2          1 GDP200   0.0000
    23 O6          10.1450    16.1510    -6.7460 O.2          1 GDP200   0.0000
    24 N1           9.0940    18.0300    -5.9370 N.pl3        1 GDP200   0.0000
    25 C2           8.1410    18.6000    -5.1650 C.2          1 GDP200   0.0000
    26 N2           8.0000    19.9370    -5.1500 N.pl3        1 GDP200   0.0000
    27 N3           7.2930    17.8880    -4.3960 N.2          1 GDP200   0.0000
    28 C4           7.3620    16.5320    -4.3780 C.2          1 GDP200   0.0000
    29 H5'1         6.7657    13.5614    -0.0379 H            1 GDP200   0.0000
    30 H5'2         5.2992    12.9590     0.3532 H            1 GDP200   0.0000
    31 H4'          4.9155    15.2243     0.0351 H            1 GDP200   0.0000
    32 H3'          3.6034    13.5775    -1.5989 H            1 GDP200   0.0000
    33 H5           3.0662    15.7803    -0.4562 H            1 GDP200   0.0000
    34 H2'          4.8185    13.9563    -3.4960 H            1 GDP200   0.0000
    35 H7           2.7847    15.8484    -3.2277 H            1 GDP200   0.0000
    36 H1'          5.2556    16.7262    -2.8482 H            1 GDP200   0.0000
    37 H9           6.8621    13.4836    -3.7625 H            1 GDP200   0.0000
    38 H10          9.6981    18.6215    -6.4710 H            1 GDP200   0.0000
    39 H11          7.2956    20.3591    -4.5794 H            1 GDP200   0.0000
    40 H12          8.5996    20.5093    -5.7094 H            1 GDP200   0.0000
@<TRIPOS>BOND
     1    1    2      ar
     2    1    3      ar
     3    1    4      ar
     4    1    5       1
     5    5    6       1
     6    6    7      ar
     7    6    8      ar
     8    6    9       1
     9    9   10       1
    10   10   11       1
    11   11   12       1
    12   11   13       1
    13   12   17       1
    14   13   14       1
    15   13   15       1
    16   15   16       1
    17   15   17       1
    18   17   18       1
    19   18   19       1
    20   18   28       1
    21   19   20       2
    22   20   21       1
    23   21   22       1
    24   21   28       2
    25   22   23       2
    26   22   24       1
    27   24   25       1
    28   25   26       1
    29   25   27       2
    30   27   28       1
    31   26   40       1
    32   26   39       1
    33   24   38       1
    34   10   29       1
    35   10   30       1
    36   11   31       1
    37   13   32       1
    38   14   33       1
    39   15   34       1
    40   16   35       1
    41   17   36       1
    42   19   37       1
@<TRIPOS>SUBSTRUCTURE
     1 GDP200      1 GROUP             4 B     GDP     0 **** GDP B 200
