@<TRIPOS>MOLECULE
./coach420/2fzs/ligand.pdb
 31 32 0 0 0
SMALL
GASTEIGER

@<TRIPOS>ATOM
      1  O2        55.1580   68.9580   58.6520 O.2   502  CMQ502     -0.2245
      2  C1        53.9460   69.1210   58.7170 C.2   502  CMQ502      0.4218
      3  O1        53.2750   68.5020   59.8310 O.3   502  CMQ502     -0.4285
      4  C2        53.9570   68.5400   61.0970 C.3   502  CMQ502      0.2368
      5  C3        53.1790   68.0260   62.2980 C.ar  502  CMQ502      0.0213
      6  C4        53.6870   68.2760   63.5880 C.ar  502  CMQ502     -0.0007
      7  C5        53.0230   67.8050   64.7280 C.ar  502  CMQ502     -0.0002
      8  C6        51.8340   67.0840   64.6000 C.ar  502  CMQ502     -0.0000
      9  C7        51.3080   66.8430   63.3110 C.ar  502  CMQ502     -0.0002
     10  C8        51.9780   67.3080   62.1600 C.ar  502  CMQ502     -0.0007
     11  N1        53.2410   69.8280   57.8340 N.am  502  CMQ502     -0.1611
     12  C9        53.8300   70.5180   56.6840 C.3   502  CMQ502      0.1761
     13  C11       52.9440   70.3230   55.4510 C.3   502  CMQ502      0.0312
     14  C12       52.7010   68.8610   55.1020 C.3   502  CMQ502      0.0022
     15  C13       51.6220   68.7430   54.0430 C.3   502  CMQ502      0.0001
     16  C14       53.9940   68.1840   54.6120 C.3   502  CMQ502      0.0001
     17  C10       53.9470   71.9910   57.0010 C.2   502  CMQ502      0.2614
     18  O3        53.2000   72.5520   57.7950 O.2   502  CMQ502     -0.2715
     19  N2        54.9680   72.6370   56.4570 N.am  502  CMQ502     -0.2028
     20  C15       55.1830   74.0570   56.6740 C.3   502  CMQ502      0.1299
     21  C16       55.1600   74.5830   55.2380 C.3   502  CMQ502      0.1722
     22  O4        55.9290   73.7450   54.3590 O.3   502  CMQ502     -0.2213
     23  C24       53.7220   74.5560   54.7450 C.3   502  CMQ502      0.0374
     24  C17       56.5600   74.2320   57.3290 C.3   502  CMQ502      0.0506
     25  C18       56.5660   75.3540   58.3500 C.ar  502  CMQ502     -0.0202
     26  C19       57.5970   76.2760   58.3620 C.ar  502  CMQ502     -0.0009
     27  C21       57.6430   77.3200   59.3020 C.ar  502  CMQ502      0.0417
     28  C23       56.6080   77.4140   60.2490 C.ar  502  CMQ502      0.1957
     29  O5        56.5900   78.4160   61.1740 O.3   502  CMQ502     -0.2866
     30  C22       55.5730   76.4750   60.2400 C.ar  502  CMQ502      0.0417
     31  C20       55.5430   75.4430   59.2900 C.ar  502  CMQ502     -0.0009
@<TRIPOS>BOND
     1     1     2    2
     2     2    11   am
     3     2     3    1
     4     3     4    1
     5     4     5    1
     6     5    10   ar
     7     5     6   ar
     8     6     7   ar
     9     7     8   ar
    10     8     9   ar
    11     9    10   ar
    12    11    12    1
    13    12    13    1
    14    12    17    1
    15    13    14    1
    16    14    15    1
    17    14    16    1
    18    17    19   am
    19    17    18    2
    20    19    20    1
    21    20    21    1
    22    20    24    1
    23    21    22    1
    24    21    23    1
    25    24    25    1
    26    25    26   ar
    27    25    31   ar
    28    26    27   ar
    29    27    28   ar
    30    28    30   ar
    31    28    29    1
    32    30    31   ar
