@<TRIPOS>MOLECULE
5ccx_SAH_1_ligand
   46    48     1     0     0
SMALL
NO_CHARGES


@<TRIPOS>ATOM
     1 N          -37.5450   -33.8290    20.8890 N.4          1 SAH301   1.0000
     2 CA         -37.0190   -34.3910    22.1270 C.3          1 SAH301   0.0000
     3 CB         -36.5560   -35.8310    21.9290 C.3          1 SAH301   0.0000
     4 CG         -37.6600   -36.7770    21.4640 C.3          1 SAH301   0.0000
     5 SD         -37.1520   -38.5170    21.4920 S.3          1 SAH301   0.0000
     6 C          -35.8580   -33.5660    22.6590 C.2          1 SAH301   0.0000
     7 O          -35.3670   -32.6620    21.9840 O.co2        1 SAH301   0.0000
     8 OXT        -35.3860   -33.7950    23.7770 O.co2        1 SAH301  -1.0000
     9 C5'        -38.8490   -39.0970    21.2690 C.3          1 SAH301   0.0000
    10 C4'        -39.5110   -39.3920    22.6100 C.3          1 SAH301   0.0000
    11 O4'        -40.9010   -39.5980    22.4330 O.3          1 SAH301   0.0000
    12 C3'        -38.9610   -40.6480    23.2750 C.3          1 SAH301   0.0000
    13 O3'        -38.4570   -40.3400    24.5520 O.3          1 SAH301   0.0000
    14 C2'        -40.1430   -41.5880    23.3980 C.3          1 SAH301   0.0000
    15 O2'        -40.1470   -42.2570    24.6340 O.3          1 SAH301   0.0000
    16 C1'        -41.3390   -40.6620    23.2550 C.3          1 SAH301   0.0000
    17 N9         -42.5270   -41.2870    22.6470 N.pl3        1 SAH301   0.0000
    18 C8         -42.5970   -42.0770    21.5330 C.2          1 SAH301   0.0000
    19 N7         -43.8930   -42.4160    21.3280 N.2          1 SAH301   0.0000
    20 C5         -44.6430   -41.8510    22.2950 C.ar         1 SAH301   0.0000
    21 C6         -46.0030   -41.8730    22.5620 C.ar         1 SAH301   0.0000
    22 N6         -46.8370   -42.5500    21.7790 N.pl3        1 SAH301   0.0000
    23 N1         -46.4830   -41.1820    23.6490 N.ar         1 SAH301   0.0000
    24 C2         -45.6210   -40.4790    24.4590 C.ar         1 SAH301   0.0000
    25 N3         -44.2740   -40.4640    24.1900 N.ar         1 SAH301   0.0000
    26 C4         -43.7960   -41.1390    23.1250 C.ar         1 SAH301   0.0000
    27 H1         -38.4989   -33.5607    21.0236 H            1 SAH301   0.0000
    28 H2         -37.0062   -33.0268    20.6317 H            1 SAH301   0.0000
    29 HA         -37.7488   -34.3857    22.8106 H            1 SAH301   0.0000
    30 HB1        -36.1975   -36.1690    22.7992 H            1 SAH301   0.0000
    31 HB2        -35.8276   -35.8362    21.2439 H            1 SAH301   0.0000
    32 HG1        -37.9160   -36.5339    20.5284 H            1 SAH301   0.0000
    33 HG2        -38.4509   -36.6653    22.0657 H            1 SAH301   0.0000
    34 H5'1       -38.8387   -39.9324    20.7195 H            1 SAH301   0.0000
    35 H5'2       -39.3750   -38.3918    20.7936 H            1 SAH301   0.0000
    36 H4'        -39.3721   -38.6124    23.2206 H            1 SAH301   0.0000
    37 H3'        -38.2468   -41.0584    22.7080 H            1 SAH301   0.0000
    38 H12        -39.1906   -39.9641    25.1182 H            1 SAH301   0.0000
    39 H2'        -40.1322   -42.2513    22.6497 H            1 SAH301   0.0000
    40 H14        -40.6622   -41.7200    25.3020 H            1 SAH301   0.0000
    41 H1'        -41.5833   -40.3012    24.1551 H            1 SAH301   0.0000
    42 H16        -41.8227   -42.3572    20.9655 H            1 SAH301   0.0000
    43 H17        -47.8163   -42.5590    21.9811 H            1 SAH301   0.0000
    44 H18        -46.4851   -43.0503    20.9879 H            1 SAH301   0.0000
    45 H19        -45.9768   -39.9767    25.2471 H            1 SAH301   0.0000
    46 H20        -37.4908   -34.5140    20.1625 H            1 SAH301   0.0000
@<TRIPOS>BOND
     1    1    2       1
     2    2    3       1
     3    2    6       1
     4    3    4       1
     5    4    5       1
     6    5    9       1
     7    6    7      ar
     8    6    8      ar
     9    9   10       1
    10   10   11       1
    11   10   12       1
    12   11   16       1
    13   12   13       1
    14   12   14       1
    15   14   15       1
    16   14   16       1
    17   16   17       1
    18   17   18       1
    19   17   26       1
    20   18   19       2
    21   19   20       1
    22   20   21      ar
    23   20   26      ar
    24   21   22       1
    25   21   23      ar
    26   23   24      ar
    27   24   25      ar
    28   25   26      ar
    29    1   27       1
    30    1   28       1
    31    2   29       1
    32    3   30       1
    33    3   31       1
    34    4   32       1
    35    4   33       1
    36    1   46       1
    37    9   34       1
    38    9   35       1
    39   10   36       1
    40   12   37       1
    41   13   38       1
    42   14   39       1
    43   15   40       1
    44   16   41       1
    45   18   42       1
    46   22   43       1
    47   22   44       1
    48   24   45       1
@<TRIPOS>SUBSTRUCTURE
     1 SAH301      1 GROUP             4 A     SAH     0 **** SAH A 301
