@<TRIPOS>MOLECULE
4mmf_29Q_2_ligand
   34    37     1     0     0
SMALL
NO_CHARGES


@<TRIPOS>ATOM
     1 CL         -29.2590    13.6090    31.5310 Cl           1 29Q603   0.0000
     2 C13        -28.1960    14.4150    32.7240 C.ar         1 29Q603   0.0000
     3 C12        -28.3120    14.1000    34.0760 C.ar         1 29Q603   0.0000
     4 C11        -27.4960    14.7360    35.0040 C.ar         1 29Q603   0.0000
     5 C14        -27.2760    15.3580    32.2820 C.ar         1 29Q603   0.0000
     6 C15        -26.4660    15.9950    33.2100 C.ar         1 29Q603   0.0000
     7 C10        -26.5670    15.6710    34.5610 C.ar         1 29Q603   0.0000
     8 C          -25.6960    16.4200    35.5110 C.3          1 29Q603   0.0000
     9 O          -24.6350    17.0480    34.7930 O.3          1 29Q603   0.0000
    10 C5         -26.5820    17.4360    36.1950 C.ar         1 29Q603   0.0000
    11 C6         -27.4100    18.3870    35.6130 C.ar         1 29Q603   0.0000
    12 C7         -28.1340    19.2440    36.4400 C.ar         1 29Q603   0.0000
    13 C8         -28.0500    19.1680    37.8310 C.ar         1 29Q603   0.0000
    14 C9         -27.2290    18.2220    38.4280 C.ar         1 29Q603   0.0000
    15 C4         -26.5200    17.3810    37.5840 C.ar         1 29Q603   0.0000
    16 C1         -25.5650    16.2750    37.7750 C.cat        1 29Q603   0.0000
    17 N          -25.1420    15.7310    36.6900 N.pl3        1 29Q603   0.0000
    18 C3         -24.1850    14.6610    36.7680 C.3          1 29Q603   0.0000
    19 C2         -23.9770    14.6840    38.3020 C.3          1 29Q603   0.0000
    20 N1         -24.9890    15.6350    38.8150 N.pl3        1 29Q603   1.0000
    21 H1         -28.9795    13.4192    34.3775 H            1 29Q603   0.0000
    22 H2         -27.5760    14.5239    35.9780 H            1 29Q603   0.0000
    23 H3         -27.1991    15.5742    31.3087 H            1 29Q603   0.0000
    24 H4         -25.8095    16.6868    32.9094 H            1 29Q603   0.0000
    25 H5         -24.0517    17.5500    35.4316 H            1 29Q603   0.0000
    26 H6         -27.4854    18.4557    34.6182 H            1 29Q603   0.0000
    27 H7         -28.7297    19.9319    36.0255 H            1 29Q603   0.0000
    28 H8         -28.5823    19.7963    38.3983 H            1 29Q603   0.0000
    29 H9         -27.1521    18.1500    39.4224 H            1 29Q603   0.0000
    30 H10        -23.3441    14.8656    36.2671 H            1 29Q603   0.0000
    31 H11        -24.5603    13.7910    36.4481 H            1 29Q603   0.0000
    32 H12        -23.0546    14.9982    38.5264 H            1 29Q603   0.0000
    33 H13        -24.1226    13.7737    38.6896 H            1 29Q603   0.0000
    34 H14        -25.2109    15.7804    39.7792 H            1 29Q603   0.0000
@<TRIPOS>BOND
     1    1    2       1
     2    2    3      ar
     3    2    5      ar
     4    3    4      ar
     5    4    7      ar
     6    5    6      ar
     7    6    7      ar
     8    7    8       1
     9    8    9       1
    10    8   10       1
    11    8   17       1
    12   10   11      ar
    13   10   15      ar
    14   11   12      ar
    15   12   13      ar
    16   13   14      ar
    17   14   15      ar
    18   15   16       1
    19   16   17      ar
    20   16   20      ar
    21   17   18       1
    22   18   19       1
    23   19   20       1
    24    3   21       1
    25    4   22       1
    26    5   23       1
    27    6   24       1
    28    9   25       1
    29   11   26       1
    30   12   27       1
    31   13   28       1
    32   14   29       1
    33   18   30       1
    34   18   31       1
    35   19   32       1
    36   19   33       1
    37   20   34       1
@<TRIPOS>SUBSTRUCTURE
     1 29Q603      1 GROUP             4 B     29Q     0 **** 29Q B 603
