@<TRIPOS>MOLECULE
3q44_D50_1_ligand
   60    61     1     0     0
SMALL
NO_CHARGES


@<TRIPOS>ATOM
     1 C1          17.2420     9.0780     7.0360 C.3          1 D501086   0.0000
     2 N1          15.4250    10.7780    10.5820 N.am         1 D501086   0.0000
     3 O1          13.9390     9.6190    11.7240 O.2          1 D501086   0.0000
     4 C2          16.3420     9.0290     8.2410 C.3          1 D501086   0.0000
     5 N2          11.2460    12.7430    11.9840 N.4          1 D501086   1.0000
     6 O2          12.8170    12.1970     9.8930 O.3          1 D501086   0.0000
     7 C3          15.8120     7.6000     8.4500 C.3          1 D501086   0.0000
     8 O3          12.1540    10.1800    18.6040 O.3          1 D501086   0.0000
     9 C4          17.1690     9.5400     9.4170 C.3          1 D501086   0.0000
    10 O4          17.1020    10.7430    12.6490 O.co2        1 D501086   0.0000
    11 C5          16.3490     9.6640    10.6690 C.3          1 D501086   0.0000
    12 O5          18.0750     8.8160    12.1410 O.co2        1 D501086  -1.0000
    13 C6          14.2660    10.6850    11.1690 C.2          1 D501086   0.0000
    14 C7          13.4490    11.9820    11.1860 C.3          1 D501086   0.0000
    15 C8          12.4360    11.9060    12.3170 C.3          1 D501086   0.0000
    16 C9          13.1310    12.5110    13.5140 C.3          1 D501086   0.0000
    17 C10         12.8380    11.8650    14.8410 C.ar         1 D501086   0.0000
    18 C11         13.2690    10.5600    15.1310 C.ar         1 D501086   0.0000
    19 C12         13.0230    10.0080    16.3840 C.ar         1 D501086   0.0000
    20 C13         12.3690    10.7420    17.3480 C.ar         1 D501086   0.0000
    21 C14         11.0280    10.4060    19.4460 C.3          1 D501086   0.0000
    22 C15         11.1280     9.4110    20.5780 C.ar         1 D501086   0.0000
    23 C16         10.8140     9.7900    21.8870 C.ar         1 D501086   0.0000
    24 C17         10.9110     8.8660    22.9270 C.ar         1 D501086   0.0000
    25 C18         11.3270     7.5620    22.6600 C.ar         1 D501086   0.0000
    26 C19         11.6540     7.1620    21.3580 C.ar         1 D501086   0.0000
    27 C20         11.5460     8.1020    20.3210 C.ar         1 D501086   0.0000
    28 C21         11.9620    12.0370    17.0600 C.ar         1 D501086   0.0000
    29 C22         12.1930    12.6210    15.8070 C.ar         1 D501086   0.0000
    30 C23         17.2050     9.7750    11.8940 C.2          1 D501086   0.0000
    31 H1          17.5801    10.0107     6.9102 H            1 D501086   0.0000
    32 H2          18.0152     8.4586     7.1721 H            1 D501086   0.0000
    33 H3          16.7287     8.7973     6.2250 H            1 D501086   0.0000
    34 H4          15.6739    11.6055    10.0787 H            1 D501086   0.0000
    35 H5          15.5682     9.6453     8.0948 H            1 D501086   0.0000
    36 H6          10.5736    12.1870    11.4955 H            1 D501086   0.0000
    37 H7          10.8389    13.0940    12.8272 H            1 D501086   0.0000
    38 H8          13.4295    12.7271     9.3066 H            1 D501086   0.0000
    39 H9          15.2158     7.5797     9.2526 H            1 D501086   0.0000
    40 H10         15.2946     7.3150     7.6431 H            1 D501086   0.0000
    41 H11         16.5811     6.9764     8.5902 H            1 D501086   0.0000
    42 H12         17.5407    10.4387     9.1841 H            1 D501086   0.0000
    43 H13         17.9203     8.9018     9.5849 H            1 D501086   0.0000
    44 H14         15.8058     8.8290    10.7565 H            1 D501086   0.0000
    45 H15         14.0693    12.7452    11.3666 H            1 D501086   0.0000
    46 H16         12.1697    10.9591    12.4973 H            1 D501086   0.0000
    47 H17         12.8578    13.4711    13.5738 H            1 D501086   0.0000
    48 H18         14.1169    12.4541    13.3568 H            1 D501086   0.0000
    49 H19         13.7529    10.0275    14.4365 H            1 D501086   0.0000
    50 H20         13.3221     9.0752    16.5852 H            1 D501086   0.0000
    51 H21         10.1807    10.2627    18.9347 H            1 D501086   0.0000
    52 H22         11.0472    11.3393    19.8045 H            1 D501086   0.0000
    53 H23         10.5191    10.7263    22.0778 H            1 D501086   0.0000
    54 H24         10.6828     9.1378    23.8619 H            1 D501086   0.0000
    55 H25         11.3928     6.9028    23.4091 H            1 D501086   0.0000
    56 H26         11.9576     6.2277    21.1714 H            1 D501086   0.0000
    57 H27         11.7713     7.8314    19.3851 H            1 D501086   0.0000
    58 H28         11.4915    12.5676    17.7651 H            1 D501086   0.0000
    59 H29         11.9003    13.5578    15.6152 H            1 D501086   0.0000
    60 H30         11.5283    13.5088    11.4062 H            1 D501086   0.0000
@<TRIPOS>BOND
     1    1    4       1
     2    2   11       1
     3    2   13      am
     4    3   13       2
     5    4    7       1
     6    4    9       1
     7    5   15       1
     8    6   14       1
     9    8   20       1
    10    8   21       1
    11    9   11       1
    12   10   30      ar
    13   11   30       1
    14   12   30      ar
    15   13   14       1
    16   14   15       1
    17   15   16       1
    18   16   17       1
    19   17   18      ar
    20   17   29      ar
    21   18   19      ar
    22   19   20      ar
    23   20   28      ar
    24   21   22       1
    25   22   23      ar
    26   22   27      ar
    27   23   24      ar
    28   24   25      ar
    29   25   26      ar
    30   26   27      ar
    31   28   29      ar
    32    1   31       1
    33    1   32       1
    34    1   33       1
    35    2   34       1
    36    4   35       1
    37    5   36       1
    38    5   37       1
    39    6   38       1
    40    7   39       1
    41    7   40       1
    42    7   41       1
    43    9   42       1
    44    9   43       1
    45    5   60       1
    46   11   44       1
    47   14   45       1
    48   15   46       1
    49   16   47       1
    50   16   48       1
    51   18   49       1
    52   19   50       1
    53   21   51       1
    54   21   52       1
    55   23   53       1
    56   24   54       1
    57   25   55       1
    58   26   56       1
    59   27   57       1
    60   28   58       1
    61   29   59       1
@<TRIPOS>SUBSTRUCTURE
     1 D501086     1 GROUP             4 A     D50     0 **** D50 A1086
