@<TRIPOS>MOLECULE
2bmb_PMM_1_ligand
   24    25     1     0     0
SMALL
NO_CHARGES


@<TRIPOS>ATOM
     1 N5           3.4890    20.6970    56.6930 N.ar         1 PMM1865   0.0000
     2 C6           4.6420    20.2830    57.0520 C.ar         1 PMM1865   0.0000
     3 C7           5.9090    20.9420    56.5510 C.ar         1 PMM1865   0.0000
     4 N8           5.7280    22.0700    55.6500 N.ar         1 PMM1865   0.0000
     5 N1           4.3550    23.5670    54.4420 N.2          1 PMM1865   0.0000
     6 C2           3.1250    24.0110    54.0820 C.2          1 PMM1865   0.0000
     7 N2           3.0480    25.0840    53.2580 N.pl3        1 PMM1865   0.0000
     8 N3           1.9880    23.4180    54.5290 N.pl3        1 PMM1865   0.0000
     9 C4           2.0060    22.3620    55.3620 C.2          1 PMM1865   0.0000
    10 O4           0.9470    21.8440    55.7580 O.2          1 PMM1865   0.0000
    11 C4A          3.3160    21.8330    55.8010 C.ar         1 PMM1865   0.0000
    12 C8A          4.5090    22.5100    55.2760 C.ar         1 PMM1865   0.0000
    13 C9           4.7310    19.0850    57.9760 C.3          1 PMM1865   0.0000
    14 O10          4.7640    17.8980    57.1590 O.3          1 PMM1865   0.0000
    15 PA           6.0900    16.9920    56.9160 P.3          1 PMM1865   0.0000
    16 O1P          6.8570    17.1030    58.2200 O.co2        1 PMM1865   0.0000
    17 O2P          6.8260    17.5800    55.7290 O.co2        1 PMM1865  -1.0000
    18 O3P          5.5020    15.6310    56.6370 O.co2        1 PMM1865  -1.0000
    19 H1           6.8163    20.6213    56.8230 H            1 PMM1865   0.0000
    20 H2           2.1550    25.4342    52.9753 H            1 PMM1865   0.0000
    21 H3           3.8841    25.5256    52.9327 H            1 PMM1865   0.0000
    22 H4           3.9335    19.0607    58.5788 H            1 PMM1865   0.0000
    23 H5           5.5636    19.1417    58.5269 H            1 PMM1865   0.0000
    24 H6           1.1055    23.7794    54.2280 H            1 PMM1865   0.0000
@<TRIPOS>BOND
     1    1    2      ar
     2    1   11      ar
     3    2    3      ar
     4    2   13       1
     5    3    4      ar
     6    4   12      ar
     7    5    6       2
     8    5   12       1
     9    6    7       1
    10    6    8       1
    11    8    9       1
    12    9   10       2
    13    9   11       1
    14   11   12      ar
    15   13   14       1
    16   14   15       1
    17   15   16      ar
    18   15   17      ar
    19   15   18      ar
    20    3   19       1
    21    8   24       1
    22    7   20       1
    23    7   21       1
    24   13   22       1
    25   13   23       1
@<TRIPOS>SUBSTRUCTURE
     1 PMM1865     1 GROUP             4 A     PMM     0 **** PMM A1865
