@<TRIPOS>MOLECULE
./coach420/1j8r/ligand.pdb
 48 51 0 0 0
SMALL
GASTEIGER

@<TRIPOS>ATOM
      1  C1        12.8390   13.4510   60.5540 C.3   201  NGA201      0.2586
      2  C2        11.7220   13.4010   61.5270 C.3   201  NGA201      0.1842
      3  C3        10.8580   12.1820   61.3220 C.3   201  NGA201      0.2094
      4  C4        10.2990   12.2210   59.8750 C.3   201  NGA201      0.2136
      5  C5        11.5440   12.2490   58.8580 C.3   201  NGA201      0.1834
      6  C6        11.2820   12.3220   57.3470 C.3   201  NGA201      0.2142
      7  C7        12.2490   14.5200   63.6600 C.2   201  NGA201      0.2420
      8  C8        11.1160   15.5260   63.5420 C.3   201  NGA201      0.0964
      9  N2        12.2410   13.4100   62.8940 N.am  201  NGA201     -0.1992
     10  O3         9.8180   12.2100   62.3180 O.3   201  NGA201     -0.2183
     11  O4         9.4290   13.3430   59.7700 O.3   201  NGA201     -0.2176
     12  O5        12.4180   13.3840   59.1610 O.3   201  NGA201     -0.3262
     13  O6        10.3690   13.3730   57.1230 O.3   201  NGA201     -0.2176
     14  O7        13.1510   14.7380   64.4490 O.2   201  NGA201     -0.2733
     15  C1        17.0460   16.0750   60.8340 C.3   202  GLA202      0.2694
     16  C2        15.5660   15.9110   61.1910 C.3   202  GLA202      0.2374
     17  C3        14.9680   14.7450   60.4460 C.3   202  GLA202      0.1858
     18  C4        15.1000   14.9460   58.8780 C.3   202  GLA202      0.2113
     19  C5        16.5730   15.0620   58.5580 C.3   202  GLA202      0.1834
     20  C6        16.8810   15.3220   57.0420 C.3   202  GLA202      0.2142
     21  O2        15.4260   15.7500   62.5610 O.3   202  GLA202     -0.2150
     22  O3        13.5780   14.6390   60.8270 O.3   202  GLA202     -0.3261
     23  O4        14.4570   16.0940   58.4670 O.3   202  GLA202     -0.2177
     24  O5        17.2020   16.1420   59.4190 O.3   202  GLA202     -0.3256
     25  O6        18.3130   15.3410   56.8540 O.3   202  GLA202     -0.2176
     26  C1        19.8210   12.3530   62.6020 C.3   203  GAL203      0.2695
     27  C2        19.5280   12.3950   61.1040 C.3   203  GAL203      0.2404
     28  C3        19.9680   13.7230   60.5060 C.3   203  GAL203      0.2167
     29  C4        19.1630   14.8130   61.1650 C.3   203  GAL203      0.1804
     30  C5        19.4480   14.7790   62.7410 C.3   203  GAL203      0.1803
     31  C6        18.7480   15.7940   63.6500 C.3   203  GAL203      0.2141
     32  O2        20.2520   11.3070   60.5000 O.3   203  GAL203     -0.2149
     33  O3        19.6810   13.7490   59.1270 O.3   203  GAL203     -0.2175
     34  O4        17.8090   15.0620   61.5020 O.3   203  GAL203     -0.3257
     35  O5        19.1660   13.4400   63.3080 O.3   203  GAL203     -0.3257
     36  O6        19.2180   17.0980   63.3760 O.3   203  GAL203     -0.2176
     37  C2        20.2150   10.5750   67.0060 C.3   204  BGC204      0.2433
     38  C3        19.4260   11.1260   65.8280 C.3   204  BGC204      0.2168
     39  C4        20.2000   10.7700   64.5320 C.3   204  BGC204      0.1804
     40  C5        20.3490    9.2210   64.4430 C.3   204  BGC204      0.1804
     41  C6        21.1200    8.7730   63.2160 C.3   204  BGC204      0.2141
     42  C1        20.3850    9.0490   66.8500 C.3   204  BGC204      0.3023
     43  O1        21.1270    8.5220   67.8920 O.3   204  BGC204     -0.1869
     44  O2        19.5200   10.8520   68.2170 O.3   204  BGC204     -0.2148
     45  O3        19.2970   12.5480   65.9480 O.3   204  BGC204     -0.2175
     46  O4        19.4550   11.1960   63.3790 O.3   204  BGC204     -0.3257
     47  O5        21.0600    8.7180   65.6080 O.3   204  BGC204     -0.3237
     48  O6        22.5260    8.9950   63.3570 O.3   204  BGC204     -0.2176
@<TRIPOS>BOND
     1     1    12    1
     2     1    22    1
     3     1     2    1
     4     2     3    1
     5     2     9    1
     6     3     4    1
     7     3    10    1
     8     4     5    1
     9     4    11    1
    10     5     6    1
    11     5    12    1
    12     6    13    1
    13     7     9   am
    14     7     8    1
    15     7    14    2
    16    15    24    1
    17    15    16    1
    18    15    34    1
    19    16    17    1
    20    16    21    1
    21    17    18    1
    22    17    22    1
    23    18    23    1
    24    18    19    1
    25    19    20    1
    26    19    24    1
    27    20    25    1
    28    26    27    1
    29    26    35    1
    30    26    46    1
    31    27    32    1
    32    27    28    1
    33    28    33    1
    34    28    29    1
    35    29    34    1
    36    29    30    1
    37    30    35    1
    38    30    31    1
    39    31    36    1
    40    37    38    1
    41    37    42    1
    42    37    44    1
    43    38    39    1
    44    38    45    1
    45    39    46    1
    46    39    40    1
    47    40    41    1
    48    40    47    1
    49    41    48    1
    50    42    47    1
    51    42    43    1
