@<TRIPOS>MOLECULE
2dph_NAD_1_ligand
   70    74     1     0     0
SMALL
NO_CHARGES


@<TRIPOS>ATOM
     1 PA          11.7840    72.5200    45.0060 P.3          1 NAD1403   0.0000
     2 O1A         10.6810    73.4720    45.1800 O.co2        1 NAD1403   0.0000
     3 O2A         13.0450    73.1140    45.4810 O.co2        1 NAD1403  -1.0000
     4 O5B         11.8900    72.0410    43.4690 O.3          1 NAD1403   0.0000
     5 C5B         11.1030    72.6330    42.4500 C.3          1 NAD1403   0.0000
     6 C4B         12.0040    73.0920    41.3010 C.3          1 NAD1403   0.0000
     7 O4B         11.2410    73.2590    40.1210 O.3          1 NAD1403   0.0000
     8 C3B         12.6820    74.4320    41.5760 C.3          1 NAD1403   0.0000
     9 O3B         14.0770    74.2700    41.4240 O.3          1 NAD1403   0.0000
    10 C2B         12.1220    75.3990    40.5400 C.3          1 NAD1403   0.0000
    11 O2B         13.0980    76.2900    40.0340 O.3          1 NAD1403   0.0000
    12 C1B         11.6360    74.4530    39.4530 C.3          1 NAD1403   0.0000
    13 N9A         10.5080    74.9290    38.6260 N.pl3        1 NAD1403   0.0000
    14 C8A          9.5880    75.9130    38.8850 C.2          1 NAD1403   0.0000
    15 N7A          8.7240    75.9650    37.8400 N.2          1 NAD1403   0.0000
    16 C5A          9.0780    75.0330    36.9230 C.ar         1 NAD1403   0.0000
    17 C6A          8.5560    74.6570    35.6800 C.ar         1 NAD1403   0.0000
    18 N6A          7.4480    75.2200    35.2180 N.pl3        1 NAD1403   0.0000
    19 N1A          9.1560    73.6400    34.9560 N.ar         1 NAD1403   0.0000
    20 C2A         10.2700    72.9990    35.4660 C.ar         1 NAD1403   0.0000
    21 N3A         10.7800    73.3790    36.6950 N.ar         1 NAD1403   0.0000
    22 C4A         10.1980    74.3760    37.4100 C.ar         1 NAD1403   0.0000
    23 O3          11.3860    71.2490    45.9070 O.3          1 NAD1403   0.0000
    24 PN          11.7400    69.6820    45.7390 P.3          1 NAD1403   0.0000
    25 O1N         12.2360    69.2260    47.0590 O.co2        1 NAD1403   0.0000
    26 O2N         12.5260    69.3940    44.5260 O.co2        1 NAD1403  -1.0000
    27 O5D         10.2630    69.0930    45.5510 O.3          1 NAD1403   0.0000
    28 C5D          9.5220    69.3220    44.3690 C.3          1 NAD1403   0.0000
    29 C4D          8.0460    69.0220    44.6050 C.3          1 NAD1403   0.0000
    30 O4D          7.8570    67.6770    45.0160 O.3          1 NAD1403   0.0000
    31 C3D          7.4680    69.8950    45.7070 C.3          1 NAD1403   0.0000
    32 O3D          6.2470    70.4340    45.2570 O.3          1 NAD1403   0.0000
    33 C2D          7.2210    68.9160    46.8410 C.3          1 NAD1403   0.0000
    34 O2D          6.1710    69.3680    47.6660 O.3          1 NAD1403   0.0000
    35 C1D          6.9080    67.6330    46.0730 C.3          1 NAD1403   0.0000
    36 N1N          6.9740    66.3590    46.8440 N.ar         1 NAD1403   1.0000
    37 C2N          5.9880    65.4060    46.6750 C.ar         1 NAD1403   0.0000
    38 C3N          6.0040    64.1820    47.3610 C.ar         1 NAD1403   0.0000
    39 C7N          5.2990    62.9550    46.8020 C.2          1 NAD1403   0.0000
    40 O7N          5.4560    61.7170    47.4710 O.2          1 NAD1403   0.0000
    41 N7N          4.5510    63.0230    45.6910 N.am         1 NAD1403   0.0000
    42 C4N          7.0590    63.9550    48.2500 C.ar         1 NAD1403   0.0000
    43 C5N          8.0630    64.9050    48.4200 C.ar         1 NAD1403   0.0000
    44 C6N          8.0110    66.1060    47.7090 C.ar         1 NAD1403   0.0000
    45 H5B1        10.6139    73.4211    42.8237 H            1 NAD1403   0.0000
    46 H5B2        10.4439    71.9632    42.1080 H            1 NAD1403   0.0000
    47 H4B         12.7060    72.3983    41.1400 H            1 NAD1403   0.0000
    48 H3B         12.4667    74.7482    42.4999 H            1 NAD1403   0.0000
    49 H5          14.2782    73.9715    40.4910 H            1 NAD1403   0.0000
    50 H2B         11.3527    75.9099    40.9236 H            1 NAD1403   0.0000
    51 H7          13.5338    75.8854    39.2300 H            1 NAD1403   0.0000
    52 H1B         12.4047    74.2403    38.8498 H            1 NAD1403   0.0000
    53 H8A          9.5591    76.4906    39.7008 H            1 NAD1403   0.0000
    54 H6A1         7.0812    74.9461    34.3290 H            1 NAD1403   0.0000
    55 H6A2         6.9792    75.9185    35.7586 H            1 NAD1403   0.0000
    56 H2A         10.7059    72.2629    34.9482 H            1 NAD1403   0.0000
    57 H5D1         9.8675    68.7280    43.6425 H            1 NAD1403   0.0000
    58 H5D2         9.6248    70.2782    44.0950 H            1 NAD1403   0.0000
    59 H4D          7.5383    69.1817    43.7584 H            1 NAD1403   0.0000
    60 H3D          8.1079    70.6143    45.9775 H            1 NAD1403   0.0000
    61 H17          6.4070    70.9823    44.4362 H            1 NAD1403   0.0000
    62 H2D          8.0548    68.7983    47.3804 H            1 NAD1403   0.0000
    63 H19          6.3198    69.0464    48.6011 H            1 NAD1403   0.0000
    64 H1D          5.9927    67.7164    45.6790 H            1 NAD1403   0.0000
    65 H2N          5.2372    65.5950    46.0421 H            1 NAD1403   0.0000
    66 H7N1         4.0972    62.2027    45.3428 H            1 NAD1403   0.0000
    67 H7N2         4.4470    63.8940    45.2108 H            1 NAD1403   0.0000
    68 H4N          7.0930    63.1012    48.7694 H            1 NAD1403   0.0000
    69 H5N          8.8194    64.7277    49.0496 H            1 NAD1403   0.0000
    70 H6N          8.7336    66.7865    47.8304 H            1 NAD1403   0.0000
@<TRIPOS>BOND
     1    1    2      ar
     2    1    3      ar
     3    1    4       1
     4    1   23       1
     5    4    5       1
     6    5    6       1
     7    6    7       1
     8    6    8       1
     9    7   12       1
    10    8    9       1
    11    8   10       1
    12   10   11       1
    13   10   12       1
    14   12   13       1
    15   13   14       1
    16   13   22       1
    17   14   15       2
    18   15   16       1
    19   16   17      ar
    20   16   22      ar
    21   17   18       1
    22   17   19      ar
    23   19   20      ar
    24   20   21      ar
    25   21   22      ar
    26   23   24       1
    27   24   25      ar
    28   24   26      ar
    29   24   27       1
    30   27   28       1
    31   28   29       1
    32   29   30       1
    33   29   31       1
    34   30   35       1
    35   31   32       1
    36   31   33       1
    37   33   34       1
    38   33   35       1
    39   35   36       1
    40   36   37      ar
    41   36   44      ar
    42   37   38      ar
    43   38   39       1
    44   38   42      ar
    45   39   40       2
    46   39   41      am
    47   42   43      ar
    48   43   44      ar
    49   44   70       1
    50    5   45       1
    51    5   46       1
    52    6   47       1
    53    8   48       1
    54    9   49       1
    55   10   50       1
    56   11   51       1
    57   12   52       1
    58   14   53       1
    59   18   54       1
    60   18   55       1
    61   20   56       1
    62   43   69       1
    63   28   57       1
    64   28   58       1
    65   29   59       1
    66   31   60       1
    67   32   61       1
    68   33   62       1
    69   34   63       1
    70   35   64       1
    71   37   65       1
    72   41   66       1
    73   41   67       1
    74   42   68       1
@<TRIPOS>SUBSTRUCTURE
     1 NAD1403     1 GROUP             4 A     NAD     0 **** NAD A1403
