@<TRIPOS>MOLECULE
2ep7_NAD_1_ligand
   70    74     1     0     0
SMALL
NO_CHARGES


@<TRIPOS>ATOM
     1 PA          -9.0570   -25.7170    34.1880 P.3          1 NAD401   0.0000
     2 O1A         -8.9460   -24.5890    33.2860 O.co2        1 NAD401   0.0000
     3 O2A         -7.7590   -26.3810    34.3810 O.co2        1 NAD401  -1.0000
     4 O5B         -9.5050   -25.3680    35.7070 O.3          1 NAD401   0.0000
     5 C5B        -10.3120   -24.2160    36.0660 C.3          1 NAD401   0.0000
     6 C4B         -9.6520   -23.3350    37.1340 C.3          1 NAD401   0.0000
     7 O4B         -9.7440   -23.9420    38.4600 O.3          1 NAD401   0.0000
     8 C3B         -8.1420   -23.0180    36.9740 C.3          1 NAD401   0.0000
     9 O3B         -7.9390   -21.6270    36.6780 O.3          1 NAD401   0.0000
    10 C2B         -7.5450   -23.4940    38.3250 C.3          1 NAD401   0.0000
    11 O2B         -6.4210   -22.6830    38.7520 O.3          1 NAD401   0.0000
    12 C1B         -8.7390   -23.3720    39.2450 C.3          1 NAD401   0.0000
    13 N9A         -8.6000   -24.1540    40.4800 N.pl3        1 NAD401   0.0000
    14 C8A         -8.0430   -25.4080    40.6720 C.2          1 NAD401   0.0000
    15 N7A         -8.0850   -25.8440    41.9600 N.2          1 NAD401   0.0000
    16 C5A         -8.7140   -24.7850    42.6230 C.ar         1 NAD401   0.0000
    17 C6A         -9.0770   -24.5950    44.0230 C.ar         1 NAD401   0.0000
    18 N6A         -8.8360   -25.5000    44.9740 N.pl3        1 NAD401   0.0000
    19 N1A         -9.7060   -23.3980    44.3450 N.ar         1 NAD401   0.0000
    20 C2A         -9.9560   -22.4590    43.3520 C.ar         1 NAD401   0.0000
    21 N3A         -9.6630   -22.5450    42.0540 N.ar         1 NAD401   0.0000
    22 C4A         -9.0400   -23.7300    41.7350 C.ar         1 NAD401   0.0000
    23 O3         -10.1150   -26.7150    33.6030 O.3          1 NAD401   0.0000
    24 PN         -11.5220   -26.5300    32.8450 P.3          1 NAD401   0.0000
    25 O1N        -11.2880   -27.1060    31.4920 O.co2        1 NAD401   0.0000
    26 O2N        -11.8430   -25.0970    32.7860 O.co2        1 NAD401  -1.0000
    27 O5D        -12.6240   -27.4460    33.5130 O.3          1 NAD401   0.0000
    28 C5D        -13.0440   -27.2980    34.8770 C.3          1 NAD401   0.0000
    29 C4D        -14.1490   -28.3170    35.0810 C.3          1 NAD401   0.0000
    30 O4D        -15.1130   -28.1770    33.9710 O.3          1 NAD401   0.0000
    31 C3D        -13.7090   -29.7900    35.0960 C.3          1 NAD401   0.0000
    32 O3D        -14.3880   -30.5920    36.0850 O.3          1 NAD401   0.0000
    33 C2D        -13.9950   -30.2180    33.6430 C.3          1 NAD401   0.0000
    34 O2D        -14.1100   -31.6550    33.5420 O.3          1 NAD401   0.0000
    35 C1D        -15.2680   -29.4440    33.3610 C.3          1 NAD401   0.0000
    36 N1N        -15.6090   -29.2900    31.9090 N.ar         1 NAD401   1.0000
    37 C2N        -14.5680   -28.8900    31.0530 C.ar         1 NAD401   0.0000
    38 C3N        -14.8870   -28.7600    29.6980 C.ar         1 NAD401   0.0000
    39 C7N        -13.8530   -28.3230    28.6440 C.2          1 NAD401   0.0000
    40 O7N        -14.1990   -28.2470    27.4710 O.2          1 NAD401   0.0000
    41 N7N        -12.6000   -28.0320    29.0120 N.am         1 NAD401   0.0000
    42 C4N        -16.2360   -29.0140    29.2080 C.ar         1 NAD401   0.0000
    43 C5N        -17.1910   -29.4070    30.1900 C.ar         1 NAD401   0.0000
    44 C6N        -16.9520   -29.5650    31.5320 C.ar         1 NAD401   0.0000
    45 H5B1       -11.1909   -24.5389    36.4172 H            1 NAD401   0.0000
    46 H5B2       -10.4632   -23.6642    35.2459 H            1 NAD401   0.0000
    47 H4B        -10.1456   -22.4657    37.1609 H            1 NAD401   0.0000
    48 H3B         -7.7646   -23.5723    36.2322 H            1 NAD401   0.0000
    49 H5          -8.3072   -21.0705    37.4228 H            1 NAD401   0.0000
    50 H2B         -7.2661   -24.4518    38.2549 H            1 NAD401   0.0000
    51 H7          -6.7176   -21.7346    38.8637 H            1 NAD401   0.0000
    52 H1B         -8.9407   -22.4136    39.4471 H            1 NAD401   0.0000
    53 H8A         -7.6449   -25.9456    39.9287 H            1 NAD401   0.0000
    54 H6A1        -9.1070   -25.3166    45.9189 H            1 NAD401   0.0000
    55 H6A2        -8.3844   -26.3614    44.7416 H            1 NAD401   0.0000
    56 H2A        -10.4101   -21.6179    43.6459 H            1 NAD401   0.0000
    57 H5D1       -13.3891   -26.3732    35.0369 H            1 NAD401   0.0000
    58 H5D2       -12.2820   -27.4814    35.4980 H            1 NAD401   0.0000
    59 H4D        -14.6180   -28.1137    35.9405 H            1 NAD401   0.0000
    60 H3D        -12.7237   -29.8342    35.2609 H            1 NAD401   0.0000
    61 H17        -13.7837   -31.3285    36.3890 H            1 NAD401   0.0000
    62 H2D        -13.2624   -29.8942    33.0443 H            1 NAD401   0.0000
    63 H19        -13.9779   -32.0642    34.4448 H            1 NAD401   0.0000
    64 H1D        -16.0261   -29.9161    33.8110 H            1 NAD401   0.0000
    65 H2N        -13.6464   -28.7078    31.3958 H            1 NAD401   0.0000
    66 H7N1       -11.9304   -27.7484    28.3256 H            1 NAD401   0.0000
    67 H7N2       -12.3331   -28.0981    29.9735 H            1 NAD401   0.0000
    68 H4N        -16.4766   -28.9184    28.2421 H            1 NAD401   0.0000
    69 H5N        -18.1222   -29.5842    29.8714 H            1 NAD401   0.0000
    70 H6N        -17.6562   -29.8470    32.1835 H            1 NAD401   0.0000
@<TRIPOS>BOND
     1    1    2      ar
     2    1    3      ar
     3    1    4       1
     4    1   23       1
     5    4    5       1
     6    5    6       1
     7    6    7       1
     8    6    8       1
     9    7   12       1
    10    8    9       1
    11    8   10       1
    12   10   11       1
    13   10   12       1
    14   12   13       1
    15   13   14       1
    16   13   22       1
    17   14   15       2
    18   15   16       1
    19   16   17      ar
    20   16   22      ar
    21   17   18       1
    22   17   19      ar
    23   19   20      ar
    24   20   21      ar
    25   21   22      ar
    26   23   24       1
    27   24   25      ar
    28   24   26      ar
    29   24   27       1
    30   27   28       1
    31   28   29       1
    32   29   30       1
    33   29   31       1
    34   30   35       1
    35   31   32       1
    36   31   33       1
    37   33   34       1
    38   33   35       1
    39   35   36       1
    40   36   37      ar
    41   36   44      ar
    42   37   38      ar
    43   38   39       1
    44   38   42      ar
    45   39   40       2
    46   39   41      am
    47   42   43      ar
    48   43   44      ar
    49   44   70       1
    50    5   45       1
    51    5   46       1
    52    6   47       1
    53    8   48       1
    54    9   49       1
    55   10   50       1
    56   11   51       1
    57   12   52       1
    58   14   53       1
    59   18   54       1
    60   18   55       1
    61   20   56       1
    62   43   69       1
    63   28   57       1
    64   28   58       1
    65   29   59       1
    66   31   60       1
    67   32   61       1
    68   33   62       1
    69   34   63       1
    70   35   64       1
    71   37   65       1
    72   41   66       1
    73   41   67       1
    74   42   68       1
@<TRIPOS>SUBSTRUCTURE
     1 NAD401      1 GROUP             4 A     NAD     0 **** NAD A 401
