@<TRIPOS>MOLECULE
1tkg_SSA_1_ligand
   49    51     1     0     0
SMALL
NO_CHARGES


@<TRIPOS>ATOM
     1 N10         -3.0580     0.2270    18.4480 N.4          1 SSA500   1.0000
     2 CA          -3.2980    -0.5200    17.2180 C.3          1 SSA500   0.0000
     3 CB          -2.0050    -1.2070    16.7600 C.3          1 SSA500   0.0000
     4 OG          -1.4830    -2.0500    17.7730 O.3          1 SSA500   0.0000
     5 C9          -4.4100    -1.5540    17.3610 C.2          1 SSA500   0.0000
     6 O9          -5.0680    -1.8930    16.3790 O.2          1 SSA500   0.0000
     7 N8          -4.6000    -2.0680    18.5820 N.am         1 SSA500   0.0000
     8 S1          -5.8270    -3.0110    18.9560 S.o2         1 SSA500   0.0000
     9 O1S         -5.9420    -4.1230    17.9850 O.2          1 SSA500   0.0000
    10 O2S         -5.7390    -3.3290    20.3990 O.2          1 SSA500   0.0000
    11 O5'         -7.1030    -2.1000    18.6990 O.3          1 SSA500   0.0000
    12 C5'         -7.3190    -0.8970    19.4230 C.3          1 SSA500   0.0000
    13 C4'         -8.7380    -0.4490    19.2040 C.3          1 SSA500   0.0000
    14 O4'         -9.3720    -0.1200    20.4580 O.3          1 SSA500   0.0000
    15 C3'         -8.9950     0.7840    18.3560 C.3          1 SSA500   0.0000
    16 O3'         -8.8640     0.5060    16.9640 O.3          1 SSA500   0.0000
    17 C2'        -10.4520     1.0840    18.7030 C.3          1 SSA500   0.0000
    18 O2'        -11.3330     0.2860    17.9380 O.3          1 SSA500   0.0000
    19 C1'        -10.5310     0.6360    20.1680 C.3          1 SSA500   0.0000
    20 N9         -10.6740     1.7230    21.1340 N.pl3        1 SSA500   0.0000
    21 C8         -11.6870     1.8450    22.0540 C.2          1 SSA500   0.0000
    22 N7         -11.6260     2.9440    22.7650 N.2          1 SSA500   0.0000
    23 C5         -10.4900     3.5860    22.2930 C.ar         1 SSA500   0.0000
    24 C6          -9.8860     4.8080    22.6370 C.ar         1 SSA500   0.0000
    25 N6         -10.3780     5.6390    23.5640 N.pl3        1 SSA500   0.0000
    26 N1          -8.7550     5.1580    21.9860 N.ar         1 SSA500   0.0000
    27 C2          -8.2840     4.3370    21.0410 C.ar         1 SSA500   0.0000
    28 N3          -8.7670     3.1650    20.6210 N.ar         1 SSA500   0.0000
    29 C4          -9.8830     2.8400    21.2970 C.ar         1 SSA500   0.0000
    30 H1          -3.6718     1.0156    18.4842 H            1 SSA500   0.0000
    31 H2          -3.2286    -0.3646    19.2360 H            1 SSA500   0.0000
    32 HA          -3.5702     0.1307    16.5092 H            1 SSA500   0.0000
    33 HB1         -1.3261    -0.5076    16.5364 H            1 SSA500   0.0000
    34 HB2         -2.1983    -1.7560    15.9469 H            1 SSA500   0.0000
    35 HG          -1.8638    -2.9690    17.6709 H            1 SSA500   0.0000
    36 H7          -3.9364    -1.8482    19.2970 H            1 SSA500   0.0000
    37 H5'1        -6.6896    -0.1912    19.0979 H            1 SSA500   0.0000
    38 H5'2        -7.1640    -1.0586    20.3976 H            1 SSA500   0.0000
    39 H4'         -9.2409    -1.2114    18.7969 H            1 SSA500   0.0000
    40 H3'         -8.3982     1.5384    18.6292 H            1 SSA500   0.0000
    41 H12         -8.6268    -0.4572    16.8373 H            1 SSA500   0.0000
    42 H2'        -10.6597     2.0573    18.6051 H            1 SSA500   0.0000
    43 H14        -12.2777     0.5022    18.1845 H            1 SSA500   0.0000
    44 H1'        -11.3233     0.0334    20.2633 H            1 SSA500   0.0000
    45 H16        -12.4047     1.1584    22.1703 H            1 SSA500   0.0000
    46 H17         -9.9056     6.4964    23.7681 H            1 SSA500   0.0000
    47 H18        -11.2179     5.4023    24.0524 H            1 SSA500   0.0000
    48 H19         -7.4501     4.6452    20.5831 H            1 SSA500   0.0000
    49 H20         -2.1091     0.5420    18.4669 H            1 SSA500   0.0000
@<TRIPOS>BOND
     1    1    2       1
     2    2    3       1
     3    2    5       1
     4    3    4       1
     5    5    6       2
     6    5    7      am
     7    7    8       1
     8    8    9       2
     9    8   10       2
    10    8   11       1
    11   11   12       1
    12   12   13       1
    13   13   14       1
    14   13   15       1
    15   14   19       1
    16   15   16       1
    17   15   17       1
    18   17   18       1
    19   17   19       1
    20   19   20       1
    21   20   21       1
    22   20   29       1
    23   21   22       2
    24   22   23       1
    25   23   24      ar
    26   23   29      ar
    27   24   25       1
    28   24   26      ar
    29   26   27      ar
    30   27   28      ar
    31   28   29      ar
    32    1   30       1
    33    1   31       1
    34    2   32       1
    35    3   33       1
    36    3   34       1
    37    4   35       1
    38    7   36       1
    39   12   37       1
    40   12   38       1
    41   13   39       1
    42   15   40       1
    43   16   41       1
    44   17   42       1
    45   18   43       1
    46   19   44       1
    47   21   45       1
    48   25   46       1
    49   25   47       1
    50   27   48       1
    51    1   49       1
@<TRIPOS>SUBSTRUCTURE
     1 SSA500      1 GROUP             4 A     SSA     0 **** SSA A 500
