@<TRIPOS>MOLECULE
3lzz_GDP_1_ligand
   40    42     1     0     0
SMALL
NO_CHARGES


@<TRIPOS>ATOM
     1 PB         -24.9580    -7.4180    15.6940 P.3          1 GDP173   0.0000
     2 O1B        -26.1250    -8.3610    15.7750 O.co2        1 GDP173   0.0000
     3 O2B        -25.4530    -6.0140    15.4630 O.co2        1 GDP173  -1.0000
     4 O3B        -24.2230    -7.4770    16.9940 O.co2        1 GDP173  -1.0000
     5 O3A        -24.0090    -7.9040    14.4980 O.3          1 GDP173   0.0000
     6 PA         -24.6460    -8.7390    13.2770 P.3          1 GDP173   0.0000
     7 O1A        -26.1230    -8.4870    13.2390 O.co2        1 GDP173   0.0000
     8 O2A        -24.2690   -10.2020    13.2840 O.co2        1 GDP173  -1.0000
     9 O5'        -24.0910    -8.1220    11.9440 O.3          1 GDP173   0.0000
    10 C5'        -25.1200    -7.8100    11.0450 C.3          1 GDP173   0.0000
    11 C4'        -24.7040    -8.2670     9.6800 C.3          1 GDP173   0.0000
    12 O4'        -25.8750    -8.4550     8.9100 O.3          1 GDP173   0.0000
    13 C3'        -23.8540    -7.2480     8.9450 C.3          1 GDP173   0.0000
    14 O3'        -22.4920    -7.6880     8.8420 O.3          1 GDP173   0.0000
    15 C2'        -24.5000    -7.2160     7.5790 C.3          1 GDP173   0.0000
    16 O2'        -23.4900    -7.3970     6.6310 O.3          1 GDP173   0.0000
    17 C1'        -25.3390    -8.4550     7.6210 C.3          1 GDP173   0.0000
    18 N9         -26.2450    -8.7170     6.5030 N.pl3        1 GDP173   0.0000
    19 C8         -27.4640    -9.2350     6.4740 C.2          1 GDP173   0.0000
    20 N7         -27.8770    -9.3510     5.2030 N.2          1 GDP173   0.0000
    21 C5         -26.8930    -8.9430     4.3990 C.2          1 GDP173   0.0000
    22 C6         -26.6010    -8.7720     2.9540 C.2          1 GDP173   0.0000
    23 O6         -27.3740    -9.0550     2.0730 O.2          1 GDP173   0.0000
    24 N1         -25.4460    -8.2800     2.6090 N.2          1 GDP173   0.0000
    25 C2         -24.5470    -7.9480     3.5320 C.2          1 GDP173   0.0000
    26 N2         -23.3610    -7.4530     3.1980 N.pl3        1 GDP173   0.0000
    27 N3         -24.7270    -8.0730     4.8250 N.pl3        1 GDP173   0.0000
    28 C4         -25.8460    -8.5370     5.2990 C.2          1 GDP173   0.0000
    29 H5'1       -25.2757    -6.8222    11.0384 H            1 GDP173   0.0000
    30 H5'2       -25.9607    -8.2782    11.3171 H            1 GDP173   0.0000
    31 H4'        -24.2062    -9.1313     9.7518 H            1 GDP173   0.0000
    32 H3'        -23.9078    -6.3525     9.3868 H            1 GDP173   0.0000
    33 H5         -21.9552    -6.9994     8.3545 H            1 GDP173   0.0000
    34 H2'        -25.0372    -6.3873     7.4219 H            1 GDP173   0.0000
    35 H7         -22.8173    -6.6620     6.7162 H            1 GDP173   0.0000
    36 H1'        -24.6861    -9.2123     7.6103 H            1 GDP173   0.0000
    37 H9         -27.9960    -9.4996     7.2783 H            1 GDP173   0.0000
    38 H10        -22.7018    -7.2108     3.9099 H            1 GDP173   0.0000
    39 H11        -23.1270    -7.3224     2.2346 H            1 GDP173   0.0000
    40 H12        -23.9957    -7.8086     5.4537 H            1 GDP173   0.0000
@<TRIPOS>BOND
     1    1    2      ar
     2    1    3      ar
     3    1    4      ar
     4    1    5       1
     5    5    6       1
     6    6    7      ar
     7    6    8      ar
     8    6    9       1
     9    9   10       1
    10   10   11       1
    11   11   12       1
    12   11   13       1
    13   12   17       1
    14   13   14       1
    15   13   15       1
    16   15   16       1
    17   15   17       1
    18   17   18       1
    19   18   19       1
    20   18   28       1
    21   19   20       2
    22   20   21       1
    23   21   22       1
    24   21   28       2
    25   22   23       2
    26   22   24       1
    27   24   25       2
    28   25   26       1
    29   25   27       1
    30   27   28       1
    31   26   39       1
    32   26   38       1
    33   19   37       1
    34   10   29       1
    35   10   30       1
    36   11   31       1
    37   13   32       1
    38   14   33       1
    39   15   34       1
    40   16   35       1
    41   17   36       1
    42   27   40       1
@<TRIPOS>SUBSTRUCTURE
     1 GDP173      1 GROUP             4 A     GDP     0 **** GDP A 173
