@<TRIPOS>MOLECULE
3giy_FMN_1_ligand
   50    52     1     0     0
SMALL
NO_CHARGES


@<TRIPOS>ATOM
     1 N1          72.5210    82.4860    26.0240 N.2          1 FMN900   0.0000
     2 C2          71.3470    81.9620    26.5180 C.2          1 FMN900   0.0000
     3 O2          71.1930    81.7360    27.6620 O.2          1 FMN900   0.0000
     4 N3          70.2910    81.6650    25.5430 N.pl3        1 FMN900   0.0000
     5 C4          70.3600    81.8840    24.1220 C.2          1 FMN900   0.0000
     6 O4          69.4470    81.6060    23.3460 O.2          1 FMN900   0.0000
     7 C4A         71.6570    82.4390    23.6100 C.2          1 FMN900   0.0000
     8 N5          71.8980    82.6130    22.2840 N.2          1 FMN900   0.0000
     9 C5A         73.1620    82.9670    21.7990 C.ar         1 FMN900   0.0000
    10 C6          73.4190    83.0040    20.3680 C.ar         1 FMN900   0.0000
    11 C7          74.7590    83.2530    19.7960 C.ar         1 FMN900   0.0000
    12 C7M         74.9360    83.2190    18.3000 C.3          1 FMN900   0.0000
    13 C8          75.9350    83.5180    20.7670 C.ar         1 FMN900   0.0000
    14 C8M         77.3560    83.7710    20.3330 C.3          1 FMN900   0.0000
    15 C9          75.6580    83.5030    22.1740 C.ar         1 FMN900   0.0000
    16 C9A         74.3210    83.2230    22.7670 C.ar         1 FMN900   0.0000
    17 N10         73.9780    83.0920    24.2020 N.pl3        1 FMN900   0.0000
    18 C10         72.7000    82.6940    24.7000 C.2          1 FMN900   0.0000
    19 C1'         75.0610    83.2870    25.1840 C.3          1 FMN900   0.0000
    20 C2'         75.8080    81.9880    25.4760 C.3          1 FMN900   0.0000
    21 O2'         75.0820    81.1270    26.2680 O.3          1 FMN900   0.0000
    22 C3'         77.1430    82.2220    26.1720 C.3          1 FMN900   0.0000
    23 O3'         76.9020    83.0490    27.3710 O.3          1 FMN900   0.0000
    24 C4'         78.1860    83.0280    25.4080 C.3          1 FMN900   0.0000
    25 O4'         78.2490    82.7130    24.0320 O.3          1 FMN900   0.0000
    26 C5'         79.5340    82.7520    26.0340 C.3          1 FMN900   0.0000
    27 O5'         80.6320    83.4520    25.3680 O.3          1 FMN900   0.0000
    28 P           81.5370    83.0270    24.1990 P.3          1 FMN900   0.0000
    29 O1P         82.7390    83.9240    24.1420 O.co2        1 FMN900   0.0000
    30 O2P         80.6680    83.1010    22.9770 O.co2        1 FMN900  -1.0000
    31 O3P         81.9000    81.6020    24.5430 O.co2        1 FMN900  -1.0000
    32 H1          69.4429    81.2732    25.8998 H            1 FMN900   0.0000
    33 H2          72.6537    82.8540    19.7421 H            1 FMN900   0.0000
    34 H7M1        75.8920    83.4052    18.0731 H            1 FMN900   0.0000
    35 H7M2        74.6813    82.3158    17.9546 H            1 FMN900   0.0000
    36 H7M3        74.3522    83.9135    17.8794 H            1 FMN900   0.0000
    37 H8M1        77.9302    83.9143    21.1391 H            1 FMN900   0.0000
    38 H8M2        77.6932    82.9819    19.8195 H            1 FMN900   0.0000
    39 H8M3        77.3874    84.5846    19.7525 H            1 FMN900   0.0000
    40 H9          76.4144    83.6936    22.7997 H            1 FMN900   0.0000
    41 H1'1        74.6664    83.6311    26.0360 H            1 FMN900   0.0000
    42 H1'2        75.7085    83.9575    24.8218 H            1 FMN900   0.0000
    43 H2'         75.9881    81.5311    24.6049 H            1 FMN900   0.0000
    44 H13         74.5286    80.5281    25.6891 H            1 FMN900   0.0000
    45 H3'         77.5350    81.3437    26.4458 H            1 FMN900   0.0000
    46 H15         77.1953    82.5485    28.1856 H            1 FMN900   0.0000
    47 H4'         77.9776    84.0010    25.5069 H            1 FMN900   0.0000
    48 H17         79.1807    82.8583    23.6991 H            1 FMN900   0.0000
    49 H5'1        79.7101    81.7687    25.9890 H            1 FMN900   0.0000
    50 H5'2        79.5057    83.0421    26.9906 H            1 FMN900   0.0000
@<TRIPOS>BOND
     1    1    2       1
     2    1   18       2
     3    2    3       2
     4    2    4       1
     5    4    5       1
     6    5    6       2
     7    5    7       1
     8    7    8       2
     9    7   18       1
    10    8    9       1
    11    9   10      ar
    12    9   16      ar
    13   10   11      ar
    14   11   12       1
    15   11   13      ar
    16   13   14       1
    17   13   15      ar
    18   15   16      ar
    19   16   17       1
    20   17   18       1
    21   17   19       1
    22   19   20       1
    23   20   21       1
    24   20   22       1
    25   22   23       1
    26   22   24       1
    27   24   25       1
    28   24   26       1
    29   26   27       1
    30   27   28       1
    31   28   29      ar
    32   28   30      ar
    33   28   31      ar
    34    4   32       1
    35   10   33       1
    36   12   34       1
    37   12   35       1
    38   12   36       1
    39   14   37       1
    40   14   38       1
    41   14   39       1
    42   15   40       1
    43   19   41       1
    44   19   42       1
    45   20   43       1
    46   21   44       1
    47   22   45       1
    48   23   46       1
    49   24   47       1
    50   25   48       1
    51   26   49       1
    52   26   50       1
@<TRIPOS>SUBSTRUCTURE
     1 FMN900      1 GROUP             4 A     FMN     0 **** FMN A 900
