@<TRIPOS>MOLECULE
4nwz_FAD_4_ligand
   84    89     1     0     0
SMALL
NO_CHARGES


@<TRIPOS>ATOM
     1 PA          26.1420   -33.1680    29.1610 P.3          1 FAD601   0.0000
     2 O1A         25.1270   -34.1080    28.4950 O.co2        1 FAD601   0.0000
     3 O2A         26.1470   -32.9420    30.6420 O.co2        1 FAD601  -1.0000
     4 O5B         27.6310   -33.6980    28.8010 O.3          1 FAD601   0.0000
     5 C5B         28.7960   -32.9580    29.2020 C.3          1 FAD601   0.0000
     6 C4B         30.0650   -33.8160    29.0610 C.3          1 FAD601   0.0000
     7 O4B         31.1960   -32.9800    29.3250 O.3          1 FAD601   0.0000
     8 C3B         30.1230   -34.9520    30.0970 C.3          1 FAD601   0.0000
     9 O3B         30.4720   -36.2200    29.5200 O.3          1 FAD601   0.0000
    10 C2B         31.1660   -34.5150    31.0960 C.3          1 FAD601   0.0000
    11 O2B         31.8670   -35.6220    31.6470 O.3          1 FAD601   0.0000
    12 C1B         32.0520   -33.6150    30.2650 C.3          1 FAD601   0.0000
    13 N9A         32.7850   -32.6480    31.0860 N.pl3        1 FAD601   0.0000
    14 C8A         32.3480   -31.8460    32.0870 C.2          1 FAD601   0.0000
    15 N7A         33.3910   -31.1390    32.6580 N.2          1 FAD601   0.0000
    16 C5A         34.5000   -31.5390    32.0150 C.ar         1 FAD601   0.0000
    17 C6A         35.9340   -31.2250    32.0910 C.ar         1 FAD601   0.0000
    18 N6A         36.4240   -30.3180    32.9750 N.pl3        1 FAD601   0.0000
    19 N1A         36.7390   -31.8620    31.2190 N.ar         1 FAD601   0.0000
    20 C2A         36.2970   -32.7750    30.3160 C.ar         1 FAD601   0.0000
    21 N3A         35.0070   -33.1350    30.2060 N.ar         1 FAD601   0.0000
    22 C4A         34.0900   -32.5410    31.0080 C.ar         1 FAD601   0.0000
    23 N1          16.5610   -32.5760    27.8970 N.2          1 FAD601   0.0000
    24 C2          15.6490   -32.9300    26.9540 C.2          1 FAD601   0.0000
    25 O2          15.6780   -32.3300    25.8580 O.2          1 FAD601   0.0000
    26 N3          14.7170   -33.8980    27.1360 N.pl3        1 FAD601   0.0000
    27 C4          14.5910   -34.5550    28.2980 C.2          1 FAD601   0.0000
    28 O4          13.6930   -35.4320    28.4630 O.2          1 FAD601   0.0000
    29 C4X         15.5360   -34.2120    29.3830 C.2          1 FAD601   0.0000
    30 N5          15.5020   -34.8550    30.5730 N.2          1 FAD601   0.0000
    31 C5X         16.4140   -34.5720    31.5360 C.ar         1 FAD601   0.0000
    32 C6          16.3760   -35.2610    32.7430 C.ar         1 FAD601   0.0000
    33 C7          17.3060   -34.9570    33.7320 C.ar         1 FAD601   0.0000
    34 C7M         17.2320   -35.6960    35.0440 C.3          1 FAD601   0.0000
    35 C8          18.3330   -33.8930    33.5020 C.ar         1 FAD601   0.0000
    36 C8M         19.3490   -33.5030    34.5450 C.3          1 FAD601   0.0000
    37 C9          18.3830   -33.2360    32.2960 C.ar         1 FAD601   0.0000
    38 C9A         17.4530   -33.5220    31.3060 C.ar         1 FAD601   0.0000
    39 N10         17.4670   -32.8000    30.0960 N.pl3        1 FAD601   0.0000
    40 C10         16.5610   -33.1770    29.0980 C.2          1 FAD601   0.0000
    41 C1'         18.5370   -31.8400    29.8050 C.3          1 FAD601   0.0000
    42 C2'         19.6890   -32.6070    29.1050 C.3          1 FAD601   0.0000
    43 O2'         19.8350   -33.9620    29.6210 O.3          1 FAD601   0.0000
    44 C3'         21.0190   -31.8390    29.1980 C.3          1 FAD601   0.0000
    45 O3'         20.7390   -30.4270    29.2170 O.3          1 FAD601   0.0000
    46 C4'         21.9630   -32.1350    28.0220 C.3          1 FAD601   0.0000
    47 O4'         22.2730   -33.5290    27.9610 O.3          1 FAD601   0.0000
    48 C5'         23.2790   -31.3650    28.1310 C.3          1 FAD601   0.0000
    49 O5'         24.1100   -31.5900    26.9770 O.3          1 FAD601   0.0000
    50 P           25.7140   -31.3020    26.9890 P.3          1 FAD601   0.0000
    51 O1P         26.2610   -32.2420    25.9320 O.co2        1 FAD601   0.0000
    52 O2P         26.0870   -29.8400    26.9240 O.co2        1 FAD601  -1.0000
    53 O3P         26.1850   -31.6890    28.4920 O.3          1 FAD601   0.0000
    54 H5B1        28.6940   -32.6784    30.1567 H            1 FAD601   0.0000
    55 H5B2        28.8834   -32.1463    28.6244 H            1 FAD601   0.0000
    56 H4B         30.1243   -34.1916    28.1361 H            1 FAD601   0.0000
    57 H3B         29.2372   -35.0287    30.5547 H            1 FAD601   0.0000
    58 H5          31.3727   -36.1542    29.0905 H            1 FAD601   0.0000
    59 H2B         30.7356   -33.9867    31.8279 H            1 FAD601   0.0000
    60 H7          32.6691   -35.8221    31.0844 H            1 FAD601   0.0000
    61 H1B         32.7108   -34.1809    29.7692 H            1 FAD601   0.0000
    62 H8A         31.3934   -31.7744    32.3761 H            1 FAD601   0.0000
    63 H6A1        37.4050   -30.1261    33.0024 H            1 FAD601   0.0000
    64 H6A2        35.8038   -29.8420    33.5985 H            1 FAD601   0.0000
    65 H2A         36.9636   -33.1998    29.7035 H            1 FAD601   0.0000
    66 H13         14.1046   -34.1291    26.3800 H            1 FAD601   0.0000
    67 H14         15.6866   -35.9685    32.8988 H            1 FAD601   0.0000
    68 H7M1        17.9587   -35.3727    35.6501 H            1 FAD601   0.0000
    69 H7M2        16.3432   -35.5292    35.4708 H            1 FAD601   0.0000
    70 H7M3        17.3450   -36.6762    34.8813 H            1 FAD601   0.0000
    71 H8M1        19.9346   -32.7768    34.1848 H            1 FAD601   0.0000
    72 H8M2        18.8774   -33.1755    35.3637 H            1 FAD601   0.0000
    73 H8M3        19.9091   -34.2979    34.7784 H            1 FAD601   0.0000
    74 H21         19.0915   -32.5498    32.1311 H            1 FAD601   0.0000
    75 H1'1        18.8682   -31.4323    30.6559 H            1 FAD601   0.0000
    76 H1'2        18.1928   -31.1201    29.2023 H            1 FAD601   0.0000
    77 H2'         19.4535   -32.6802    28.1359 H            1 FAD601   0.0000
    78 H25         20.5855   -34.4208    29.1453 H            1 FAD601   0.0000
    79 H3'         21.4773   -32.0889    30.0509 H            1 FAD601   0.0000
    80 H27         21.4475   -29.9537    29.7404 H            1 FAD601   0.0000
    81 H4'         21.5074   -31.8711    27.1718 H            1 FAD601   0.0000
    82 H29         23.0893   -33.7132    28.5085 H            1 FAD601   0.0000
    83 H5'1        23.7677   -31.6681    28.9491 H            1 FAD601   0.0000
    84 H5'2        23.0802   -30.3877    28.2044 H            1 FAD601   0.0000
@<TRIPOS>BOND
     1    1    2      ar
     2    1    3      ar
     3    1    4       1
     4    1   53       1
     5    4    5       1
     6    5    6       1
     7    6    7       1
     8    6    8       1
     9    7   12       1
    10    8    9       1
    11    8   10       1
    12   10   11       1
    13   10   12       1
    14   12   13       1
    15   13   14       1
    16   13   22       1
    17   14   15       2
    18   15   16       1
    19   16   17      ar
    20   16   22      ar
    21   17   18       1
    22   17   19      ar
    23   19   20      ar
    24   20   21      ar
    25   21   22      ar
    26   23   24       1
    27   23   40       2
    28   24   25       2
    29   24   26       1
    30   26   27       1
    31   27   28       2
    32   27   29       1
    33   29   30       2
    34   29   40       1
    35   30   31       1
    36   31   32      ar
    37   31   38      ar
    38   32   33      ar
    39   33   34       1
    40   33   35      ar
    41   35   36       1
    42   35   37      ar
    43   37   38      ar
    44   38   39       1
    45   39   40       1
    46   39   41       1
    47   41   42       1
    48   42   43       1
    49   42   44       1
    50   44   45       1
    51   44   46       1
    52   46   47       1
    53   46   48       1
    54   48   49       1
    55   49   50       1
    56   50   51      ar
    57   50   52      ar
    58   50   53       1
    59   48   84       1
    60    5   54       1
    61    5   55       1
    62    6   56       1
    63    8   57       1
    64    9   58       1
    65   10   59       1
    66   11   60       1
    67   12   61       1
    68   14   62       1
    69   18   63       1
    70   18   64       1
    71   20   65       1
    72   26   66       1
    73   32   67       1
    74   34   68       1
    75   34   69       1
    76   34   70       1
    77   36   71       1
    78   36   72       1
    79   36   73       1
    80   37   74       1
    81   41   75       1
    82   41   76       1
    83   42   77       1
    84   43   78       1
    85   44   79       1
    86   45   80       1
    87   46   81       1
    88   47   82       1
    89   48   83       1
@<TRIPOS>SUBSTRUCTURE
     1 FAD601      1 GROUP             4 D     FAD     0 **** FAD D 601
