@<TRIPOS>MOLECULE
3a70_NPO_2_ligand
   15    15     1     0     0
SMALL
NO_CHARGES


@<TRIPOS>ATOM
     1 C1           2.0120    30.3810    22.9700 C.ar         1 NPO630   0.0000
     2 C2           2.2660    31.3160    22.0550 C.ar         1 NPO630   0.0000
     3 C3           3.5210    31.4330    21.5220 C.ar         1 NPO630   0.0000
     4 C4           4.4690    30.5850    21.9390 C.ar         1 NPO630   0.0000
     5 C5           4.2040    29.6060    22.8410 C.ar         1 NPO630   0.0000
     6 C6           2.9600    29.5120    23.3750 C.ar         1 NPO630   0.0000
     7 OH           5.6740    30.6900    21.4180 O.3          1 NPO630   0.0000
     8 N1           0.7690    30.2520    23.4940 N.2          1 NPO630   1.0000
     9 O2           0.0200    31.1720    23.5820 O.co2        1 NPO630   0.0000
    10 O3           0.4870    29.1620    23.8390 O.co2        1 NPO630  -1.0000
    11 H1           1.5379    31.9335    21.7572 H            1 NPO630   0.0000
    12 H2           3.7246    32.1340    20.8385 H            1 NPO630   0.0000
    13 H3           4.9187    28.9601    23.1095 H            1 NPO630   0.0000
    14 H4           2.7502    28.8109    24.0565 H            1 NPO630   0.0000
    15 HH           5.8616    31.3902    20.7292 H            1 NPO630   0.0000
@<TRIPOS>BOND
     1    1    2      ar
     2    1    6      ar
     3    1    8       1
     4    2    3      ar
     5    3    4      ar
     6    4    5      ar
     7    4    7       1
     8    5    6      ar
     9    8    9      ar
    10    8   10      ar
    11    2   11       1
    12    3   12       1
    13    5   13       1
    14    6   14       1
    15    7   15       1
@<TRIPOS>SUBSTRUCTURE
     1 NPO630      1 GROUP             4 C     NPO     0 **** NPO C 630
