@<TRIPOS>MOLECULE
4ixt_1H1_1_ligand
   22    21     1     0     0
SMALL
NO_CHARGES


@<TRIPOS>ATOM
     1 O2          70.3690    32.7980    18.6830 O.2          1 1H1301   0.0000
     2 C3          70.4080    33.4000    17.6200 C.2          1 1H1301   0.0000
     3 O1          69.1570    33.6660    16.9240 O.3          1 1H1301   0.0000
     4 C2          67.9650    33.8110    17.6960 C.3          1 1H1301   0.0000
     5 C1          67.0930    32.6000    17.4670 C.3          1 1H1301   0.0000
     6 C4          71.7290    33.8660    17.0480 C.3          1 1H1301   0.0000
     7 C5          71.8520    33.4680    15.5770 C.3          1 1H1301   0.0000
     8 O3          71.5880    32.0640    15.4500 O.3          1 1H1301   0.0000
     9 C6          73.2610    33.7630    15.0740 C.3          1 1H1301   0.0000
    10 C7          73.5160    35.2150    14.9950 C.1          1 1H1301   0.0000
    11 N           73.7750    36.3390    14.8980 N.1          1 1H1301   0.0000
    12 H1          67.4773    34.6362    17.4110 H            1 1H1301   0.0000
    13 H2          68.1981    33.8798    18.6660 H            1 1H1301   0.0000
    14 H3          66.2530    32.6880    18.0025 H            1 1H1301   0.0000
    15 H4          66.8638    32.5331    16.4959 H            1 1H1301   0.0000
    16 H5          67.5846    31.7768    17.7509 H            1 1H1301   0.0000
    17 H6          72.4761    33.4479    17.5647 H            1 1H1301   0.0000
    18 H7          71.7869    34.8614    17.1246 H            1 1H1301   0.0000
    19 H8          71.1886    33.9834    15.0346 H            1 1H1301   0.0000
    20 H9          70.6633    31.8678    15.7764 H            1 1H1301   0.0000
    21 H10         73.3709    33.3640    14.1636 H            1 1H1301   0.0000
    22 H11         73.9224    33.3508    15.7006 H            1 1H1301   0.0000
@<TRIPOS>BOND
     1    1    2       2
     2    2    3       1
     3    2    6       1
     4    3    4       1
     5    4    5       1
     6    6    7       1
     7    7    8       1
     8    7    9       1
     9    9   10       1
    10   10   11       3
    11    4   12       1
    12    4   13       1
    13    5   14       1
    14    5   15       1
    15    5   16       1
    16    6   17       1
    17    6   18       1
    18    7   19       1
    19    8   20       1
    20    9   21       1
    21    9   22       1
@<TRIPOS>SUBSTRUCTURE
     1 1H1301      1 GROUP             4 A     1H1     0 **** 1H1 A 301
