@<TRIPOS>MOLECULE
4pzs_ACO_1_ligand
   85    87     1     0     0
SMALL
NO_CHARGES


@<TRIPOS>ATOM
     1 N1A          7.6880    38.9480     3.4360 N.ar         1 ACO1701   0.0000
     2 C2A          8.3770    37.7900     3.3660 C.ar         1 ACO1701   0.0000
     3 N3A          9.6560    37.7840     2.9500 N.ar         1 ACO1701   0.0000
     4 C4A         10.2830    38.9390     2.5890 C.ar         1 ACO1701   0.0000
     5 C5A          9.6090    40.1490     2.6550 C.ar         1 ACO1701   0.0000
     6 C6A          8.2590    40.1200     3.0930 C.ar         1 ACO1701   0.0000
     7 N6A          7.5140    41.3490     3.1830 N.pl3        1 ACO1701   0.0000
     8 N7A         10.4750    41.1370     2.2540 N.2          1 ACO1701   0.0000
     9 C8A         11.6520    40.5640     1.9370 C.2          1 ACO1701   0.0000
    10 N9A         11.5440    39.2360     2.1480 N.pl3        1 ACO1701   0.0000
    11 C1B         12.5870    38.2380     1.9350 C.3          1 ACO1701   0.0000
    12 C2B         13.1940    38.3040     0.5750 C.3          1 ACO1701   0.0000
    13 O2B         12.3410    37.6640    -0.3190 O.3          1 ACO1701   0.0000
    14 C3B         14.4390    37.6570     0.7110 C.3          1 ACO1701   0.0000
    15 O3B         14.2850    36.2660     0.6380 O.3          1 ACO1701   0.0000
    16 P3B         15.4810    35.3710     0.2010 P.3          1 ACO1701   0.0000
    17 O7A         15.2100    33.9390     0.5310 O.co2        1 ACO1701   0.0000
    18 O8A         16.7540    35.7750     0.9220 O.co2        1 ACO1701  -1.0000
    19 O9A         15.6470    35.5450    -1.2940 O.co2        1 ACO1701  -1.0000
    20 C4B         14.8750    38.0070     2.0730 C.3          1 ACO1701   0.0000
    21 O4B         13.7160    38.3310     2.7930 O.3          1 ACO1701   0.0000
    22 C5B         15.7030    39.2190     2.0600 C.3          1 ACO1701   0.0000
    23 O5B         15.0310    40.3370     1.5260 O.3          1 ACO1701   0.0000
    24 P1A         15.3660    41.8370     1.9830 P.3          1 ACO1701   0.0000
    25 O1A         14.6490    42.7890     1.0290 O.co2        1 ACO1701   0.0000
    26 O2A         14.9350    42.0710     3.4140 O.co2        1 ACO1701  -1.0000
    27 O3A         16.9600    42.0160     1.9830 O.3          1 ACO1701   0.0000
    28 P2A         17.9030    42.3370     0.7700 P.3          1 ACO1701   0.0000
    29 O4A         17.6860    41.4120    -0.4040 O.co2        1 ACO1701   0.0000
    30 O5A         19.3240    42.2530     1.2830 O.co2        1 ACO1701  -1.0000
    31 O6A         17.5890    43.8000     0.2710 O.3          1 ACO1701   0.0000
    32 CBP         17.0100    46.1920     0.5390 C.3          1 ACO1701   0.0000
    33 CCP         17.4950    44.8770     1.2000 C.3          1 ACO1701   0.0000
    34 CDP         18.1660    46.7700    -0.2400 C.3          1 ACO1701   0.0000
    35 CEP         16.5840    47.2260     1.6220 C.3          1 ACO1701   0.0000
    36 CAP         15.7940    45.8740    -0.3670 C.3          1 ACO1701   0.0000
    37 OAP         14.7700    45.2470     0.3590 O.3          1 ACO1701   0.0000
    38 C9P         15.2600    47.1220    -1.0530 C.2          1 ACO1701   0.0000
    39 O9P         15.8250    47.6050    -1.9970 O.2          1 ACO1701   0.0000
    40 N8P         14.0750    47.7320    -0.5540 N.am         1 ACO1701   0.0000
    41 C7P         13.4720    48.9500    -1.1700 C.3          1 ACO1701   0.0000
    42 C6P         13.9600    50.2510    -0.6450 C.3          1 ACO1701   0.0000
    43 C5P         14.2070    50.2880     0.8370 C.2          1 ACO1701   0.0000
    44 O5P         13.5010    49.6020     1.5940 O.2          1 ACO1701   0.0000
    45 N4P         15.2860    51.0900     1.3450 N.am         1 ACO1701   0.0000
    46 C3P         15.5710    51.1620     2.7280 C.3          1 ACO1701   0.0000
    47 C2P         15.2250    52.4570     3.4100 C.3          1 ACO1701   0.0000
    48 S1P         15.9160    53.9420     2.7060 S.3          1 ACO1701   0.0000
    49 C           17.4590    54.2500     3.5790 C.2          1 ACO1701   0.0000
    50 O           17.4690    54.9820     4.6040 O.2          1 ACO1701   0.0000
    51 CH3         18.7820    54.1220     2.8670 C.3          1 ACO1701   0.0000
    52 H2A          7.9343    36.9315     3.6248 H            1 ACO1701   0.0000
    53 H6A1         7.9444    42.2145     2.9268 H            1 ACO1701   0.0000
    54 H6A2         6.5662    41.3370     3.5017 H            1 ACO1701   0.0000
    55 H8A         12.4652    41.0406     1.6030 H            1 ACO1701   0.0000
    56 H1B         12.1803    37.3319     2.0515 H            1 ACO1701   0.0000
    57 H2B         13.3280    39.2568     0.3025 H            1 ACO1701   0.0000
    58 H7          12.0497    38.3113    -1.0233 H            1 ACO1701   0.0000
    59 H3B         15.0920    37.9840     0.0279 H            1 ACO1701   0.0000
    60 H4B         15.3614    37.2451     2.5006 H            1 ACO1701   0.0000
    61 H5B1        16.5178    39.0428     1.5077 H            1 ACO1701   0.0000
    62 H5B2        15.9757    39.4292     2.9989 H            1 ACO1701   0.0000
    63 HCP1        18.3975    45.0339     1.6012 H            1 ACO1701   0.0000
    64 HCP2        16.8495    44.6234     1.9204 H            1 ACO1701   0.0000
    65 HDP1        17.8798    47.6220    -0.6783 H            1 ACO1701   0.0000
    66 HDP2        18.9277    46.9542     0.3812 H            1 ACO1701   0.0000
    67 HDP3        18.4566    46.1168    -0.9392 H            1 ACO1701   0.0000
    68 HEP1        16.2747    48.0664     1.1771 H            1 ACO1701   0.0000
    69 HEP2        15.8396    46.8461     2.1711 H            1 ACO1701   0.0000
    70 HEP3        17.3641    47.4297     2.2135 H            1 ACO1701   0.0000
    71 HAP         16.0986    45.2399    -1.0777 H            1 ACO1701   0.0000
    72 H21         14.8984    44.2558     0.3283 H            1 ACO1701   0.0000
    73 H8P         13.6274    47.3272     0.2434 H            1 ACO1701   0.0000
    74 H7P1        12.4838    48.9111    -1.0221 H            1 ACO1701   0.0000
    75 H7P2        13.6635    48.9241    -2.1511 H            1 ACO1701   0.0000
    76 H6P1        13.2775    50.9486    -0.8628 H            1 ACO1701   0.0000
    77 H6P2        14.8192    50.4692    -1.1078 H            1 ACO1701   0.0000
    78 H4P         15.8498    51.6106     0.7038 H            1 ACO1701   0.0000
    79 H3P1        16.5519    51.0075     2.8459 H            1 ACO1701   0.0000
    80 H3P2        15.0615    50.4317     3.1831 H            1 ACO1701   0.0000
    81 H2P1        15.5412    52.3949     4.3567 H            1 ACO1701   0.0000
    82 H2P2        14.2294    52.5500     3.3965 H            1 ACO1701   0.0000
    83 HH31        19.5247    54.3285     3.5040 H            1 ACO1701   0.0000
    84 HH32        18.8869    53.1886     2.5239 H            1 ACO1701   0.0000
    85 HH33        18.8118    54.7641     2.1009 H            1 ACO1701   0.0000
@<TRIPOS>BOND
     1    1    2      ar
     2    1    6      ar
     3    2    3      ar
     4    3    4      ar
     5    4    5      ar
     6    4   10       1
     7    5    6      ar
     8    5    8       1
     9    6    7       1
    10    8    9       2
    11    9   10       1
    12   10   11       1
    13   11   12       1
    14   11   21       1
    15   12   13       1
    16   12   14       1
    17   14   15       1
    18   14   20       1
    19   15   16       1
    20   16   17      ar
    21   16   18      ar
    22   16   19      ar
    23   20   21       1
    24   20   22       1
    25   22   23       1
    26   23   24       1
    27   24   25      ar
    28   24   26      ar
    29   24   27       1
    30   27   28       1
    31   28   29      ar
    32   28   30      ar
    33   28   31       1
    34   31   33       1
    35   32   33       1
    36   32   34       1
    37   32   35       1
    38   32   36       1
    39   36   37       1
    40   36   38       1
    41   38   39       2
    42   38   40      am
    43   40   41       1
    44   41   42       1
    45   42   43       1
    46   43   44       2
    47   43   45      am
    48   45   46       1
    49   46   47       1
    50   47   48       1
    51   48   49       1
    52   49   50       2
    53   49   51       1
    54    2   52       1
    55    7   53       1
    56    7   54       1
    57    9   55       1
    58   11   56       1
    59   12   57       1
    60   13   58       1
    61   14   59       1
    62   51   85       1
    63   51   84       1
    64   20   60       1
    65   22   61       1
    66   22   62       1
    67   51   83       1
    68   47   82       1
    69   33   63       1
    70   33   64       1
    71   34   65       1
    72   34   66       1
    73   34   67       1
    74   35   68       1
    75   35   69       1
    76   35   70       1
    77   36   71       1
    78   37   72       1
    79   40   73       1
    80   41   74       1
    81   41   75       1
    82   42   76       1
    83   42   77       1
    84   45   78       1
    85   46   79       1
    86   46   80       1
    87   47   81       1
@<TRIPOS>SUBSTRUCTURE
     1 ACO1701     1 GROUP             4 A     ACO     0 **** ACO A1701
