@<TRIPOS>MOLECULE
1qsm_ACO_3_ligand
   85    87     1     0     0
SMALL
NO_CHARGES


@<TRIPOS>ATOM
     1 N1A         31.0220    68.4850    29.0110 N.ar         1 ACO1202   0.0000
     2 C2A         30.8760    69.7100    28.3780 C.ar         1 ACO1202   0.0000
     3 N3A         31.8540    70.5690    28.0290 N.ar         1 ACO1202   0.0000
     4 C4A         33.0720    70.1260    28.3580 C.ar         1 ACO1202   0.0000
     5 C5A         33.4100    68.9060    29.0040 C.ar         1 ACO1202   0.0000
     6 C6A         32.2620    68.0130    29.3560 C.ar         1 ACO1202   0.0000
     7 N6A         32.4060    66.8790    29.9440 N.pl3        1 ACO1202   0.0000
     8 N7A         34.7580    68.7850    29.1790 N.2          1 ACO1202   0.0000
     9 C8A         35.2800    69.9250    28.6490 C.2          1 ACO1202   0.0000
    10 N9A         34.2980    70.7730    28.1430 N.pl3        1 ACO1202   0.0000
    11 C1B         34.4570    72.1670    27.6050 C.3          1 ACO1202   0.0000
    12 C2B         34.3880    73.1490    28.7400 C.3          1 ACO1202   0.0000
    13 O2B         33.0440    73.2650    29.1480 O.3          1 ACO1202   0.0000
    14 C3B         34.9610    74.4210    28.1210 C.3          1 ACO1202   0.0000
    15 O3B         34.0970    75.2000    27.4160 O.3          1 ACO1202   0.0000
    16 P3B         34.1330    76.7230    28.1010 P.3          1 ACO1202   0.0000
    17 O7A         33.5390    76.5400    29.5750 O.co2        1 ACO1202   0.0000
    18 O8A         33.1430    77.7310    27.3440 O.co2        1 ACO1202  -1.0000
    19 O9A         35.6640    77.1740    28.1420 O.co2        1 ACO1202  -1.0000
    20 C4B         36.1660    73.8500    27.3740 C.3          1 ACO1202   0.0000
    21 O4B         35.8030    72.4160    27.0780 O.3          1 ACO1202   0.0000
    22 C5B         37.3730    73.8780    28.2290 C.3          1 ACO1202   0.0000
    23 O5B         38.5220    73.6640    27.3880 O.3          1 ACO1202   0.0000
    24 P1A         39.5320    74.9030    27.1610 P.3          1 ACO1202   0.0000
    25 O1A         40.1690    75.1940    28.4870 O.co2        1 ACO1202   0.0000
    26 O2A         38.8670    76.0430    26.4350 O.co2        1 ACO1202  -1.0000
    27 O3A         40.5730    74.1940    26.3060 O.3          1 ACO1202   0.0000
    28 P2A         41.9120    73.3530    26.7670 P.3          1 ACO1202   0.0000
    29 O4A         41.5780    72.2080    27.6850 O.co2        1 ACO1202   0.0000
    30 O5A         42.9670    74.2080    27.4170 O.co2        1 ACO1202  -1.0000
    31 O6A         42.4610    72.8740    25.3000 O.3          1 ACO1202   0.0000
    32 CBP         42.6780    71.0490    23.7350 C.3          1 ACO1202   0.0000
    33 CCP         41.6950    72.0350    24.4340 C.3          1 ACO1202   0.0000
    34 CDP         41.9670    70.0970    22.7370 C.3          1 ACO1202   0.0000
    35 CEP         43.6330    72.0190    23.0120 C.3          1 ACO1202   0.0000
    36 CAP         43.3790    70.1720    24.8610 C.3          1 ACO1202   0.0000
    37 OAP         42.4300    69.2550    25.4830 O.3          1 ACO1202   0.0000
    38 C9P         44.5460    69.3650    24.3160 C.2          1 ACO1202   0.0000
    39 O9P         45.8210    69.8320    24.3920 O.2          1 ACO1202   0.0000
    40 N8P         44.2270    68.2260    23.7840 N.am         1 ACO1202   0.0000
    41 C7P         45.2020    67.3130    23.2170 C.3          1 ACO1202   0.0000
    42 C6P         45.8380    67.9870    22.0140 C.3          1 ACO1202   0.0000
    43 C5P         44.7960    68.2990    20.9710 C.2          1 ACO1202   0.0000
    44 O5P         43.7560    67.5630    20.7650 O.2          1 ACO1202   0.0000
    45 N4P         45.0520    69.3880    20.3000 N.am         1 ACO1202   0.0000
    46 C3P         44.1790    69.9540    19.1900 C.3          1 ACO1202   0.0000
    47 C2P         44.1670    68.9160    18.0790 C.3          1 ACO1202   0.0000
    48 S1P         43.3760    69.5240    16.5360 S.3          1 ACO1202   0.0000
    49 C           44.3160    70.9990    16.0470 C.2          1 ACO1202   0.0000
    50 O           45.4630    70.6570    15.9330 O.2          1 ACO1202   0.0000
    51 CH3         43.7690    71.7490    15.1590 C.3          1 ACO1202   0.0000
    52 H2A         29.9411    69.9868    28.1558 H            1 ACO1202   0.0000
    53 H6A1        33.3201    66.5541    30.1866 H            1 ACO1202   0.0000
    54 H6A2        31.6039    66.3217    30.1588 H            1 ACO1202   0.0000
    55 H8A         36.2584    70.1304    28.6256 H            1 ACO1202   0.0000
    56 H1B         33.7602    72.3665    26.9161 H            1 ACO1202   0.0000
    57 H2B         34.9592    72.8432    29.5017 H            1 ACO1202   0.0000
    58 H7          32.8831    74.1840    29.5080 H            1 ACO1202   0.0000
    59 H3B         35.3165    74.9792    28.8707 H            1 ACO1202   0.0000
    60 H4B         36.3247    74.3546    26.5254 H            1 ACO1202   0.0000
    61 H5B1        37.3175    73.1549    28.9175 H            1 ACO1202   0.0000
    62 H5B2        37.4461    74.7659    28.6832 H            1 ACO1202   0.0000
    63 HCP1        41.2263    72.5916    23.7481 H            1 ACO1202   0.0000
    64 HCP2        41.0202    71.5230    24.9656 H            1 ACO1202   0.0000
    65 HDP1        42.6414    69.4885    22.3188 H            1 ACO1202   0.0000
    66 HDP2        41.2840    69.5529    23.2243 H            1 ACO1202   0.0000
    67 HDP3        41.5174    70.6361    22.0248 H            1 ACO1202   0.0000
    68 HEP1        44.3259    71.4963    22.5154 H            1 ACO1202   0.0000
    69 HEP2        43.1133    72.5800    22.3677 H            1 ACO1202   0.0000
    70 HEP3        44.0794    72.6100    23.6839 H            1 ACO1202   0.0000
    71 HAP         43.7272    70.7888    25.5669 H            1 ACO1202   0.0000
    72 H21         42.9116    68.4336    25.7887 H            1 ACO1202   0.0000
    73 H8P         43.2621    67.9642    23.7636 H            1 ACO1202   0.0000
    74 H7P1        44.7492    66.4682    22.9318 H            1 ACO1202   0.0000
    75 H7P2        45.9039    67.1018    23.8973 H            1 ACO1202   0.0000
    76 H6P1        46.5253    67.3767    21.6201 H            1 ACO1202   0.0000
    77 H6P2        46.2756    68.8373    22.3065 H            1 ACO1202   0.0000
    78 H4P         45.8855    69.8889    20.5330 H            1 ACO1202   0.0000
    79 H3P1        44.5616    70.8148    18.8545 H            1 ACO1202   0.0000
    80 H3P2        43.2505    70.1106    19.5266 H            1 ACO1202   0.0000
    81 H2P1        43.6650    68.1125    18.3991 H            1 ACO1202   0.0000
    82 H2P2        45.1112    68.6589    17.8730 H            1 ACO1202   0.0000
    83 HH31        44.3671    72.5266    14.9651 H            1 ACO1202   0.0000
    84 HH32        43.6246    71.2226    14.3211 H            1 ACO1202   0.0000
    85 HH33        42.8895    72.0816    15.4995 H            1 ACO1202   0.0000
@<TRIPOS>BOND
     1    1    2      ar
     2    1    6      ar
     3    2    3      ar
     4    3    4      ar
     5    4    5      ar
     6    4   10       1
     7    5    6      ar
     8    5    8       1
     9    6    7       1
    10    8    9       2
    11    9   10       1
    12   10   11       1
    13   11   12       1
    14   11   21       1
    15   12   13       1
    16   12   14       1
    17   14   15       1
    18   14   20       1
    19   15   16       1
    20   16   17      ar
    21   16   18      ar
    22   16   19      ar
    23   20   21       1
    24   20   22       1
    25   22   23       1
    26   23   24       1
    27   24   25      ar
    28   24   26      ar
    29   24   27       1
    30   27   28       1
    31   28   29      ar
    32   28   30      ar
    33   28   31       1
    34   31   33       1
    35   32   33       1
    36   32   34       1
    37   32   35       1
    38   32   36       1
    39   36   37       1
    40   36   38       1
    41   38   39       2
    42   38   40      am
    43   40   41       1
    44   41   42       1
    45   42   43       1
    46   43   44       2
    47   43   45      am
    48   45   46       1
    49   46   47       1
    50   47   48       1
    51   48   49       1
    52   49   50       2
    53   49   51       1
    54    2   52       1
    55    7   53       1
    56    7   54       1
    57    9   55       1
    58   11   56       1
    59   12   57       1
    60   13   58       1
    61   14   59       1
    62   51   85       1
    63   51   84       1
    64   20   60       1
    65   22   61       1
    66   22   62       1
    67   51   83       1
    68   47   82       1
    69   33   63       1
    70   33   64       1
    71   34   65       1
    72   34   66       1
    73   34   67       1
    74   35   68       1
    75   35   69       1
    76   35   70       1
    77   36   71       1
    78   37   72       1
    79   40   73       1
    80   41   74       1
    81   41   75       1
    82   42   76       1
    83   42   77       1
    84   45   78       1
    85   46   79       1
    86   46   80       1
    87   47   81       1
@<TRIPOS>SUBSTRUCTURE
     1 ACO1202     1 GROUP             4 C     ACO     0 **** ACO C1202
