@<TRIPOS>MOLECULE
5irn_ADP_1_ligand
   39    41     1     0     0
SMALL
NO_CHARGES


@<TRIPOS>ATOM
     1 PB          49.5090    95.7940   115.0610 P.3          1 ADP1101   0.0000
     2 O1B         50.5670    96.3630   114.1410 O.co2        1 ADP1101   0.0000
     3 O2B         49.6820    94.3190   115.3010 O.co2        1 ADP1101  -1.0000
     4 O3B         49.1880    96.5450   116.3330 O.co2        1 ADP1101  -1.0000
     5 PA          46.9650    96.9920   114.3820 P.3          1 ADP1101   0.0000
     6 O1A         47.5250    98.3810   114.2940 O.co2        1 ADP1101   0.0000
     7 O2A         46.1900    96.4830   115.5630 O.co2        1 ADP1101  -1.0000
     8 O3A         48.1560    95.9010   114.1820 O.3          1 ADP1101   0.0000
     9 O5'         46.1190    96.6350   113.0830 O.3          1 ADP1101   0.0000
    10 C5'         46.1190    97.3450   111.8630 C.3          1 ADP1101   0.0000
    11 C4'         44.6890    97.7120   111.4770 C.3          1 ADP1101   0.0000
    12 O4'         43.9110    96.5750   111.0800 O.3          1 ADP1101   0.0000
    13 C3'         43.8950    98.3750   112.5920 C.3          1 ADP1101   0.0000
    14 O3'         44.0900    99.7800   112.5980 O.3          1 ADP1101   0.0000
    15 C2'         42.4610    98.0760   112.2420 C.3          1 ADP1101   0.0000
    16 O2'         42.0070    98.9890   111.2270 O.3          1 ADP1101   0.0000
    17 C1'         42.5750    96.7210   111.6310 C.3          1 ADP1101   0.0000
    18 N9          42.3640    95.6470   112.6000 N.pl3        1 ADP1101   0.0000
    19 C8          43.3120    94.9740   113.3060 C.2          1 ADP1101   0.0000
    20 N7          42.7830    93.9890   114.0980 N.2          1 ADP1101   0.0000
    21 C5          41.4590    94.0510   113.8520 C.ar         1 ADP1101   0.0000
    22 C6          40.3210    93.3100   114.3070 C.ar         1 ADP1101   0.0000
    23 N6          40.5160    92.3130   115.1830 N.pl3        1 ADP1101   0.0000
    24 N1          39.1000    93.6240   113.8380 N.ar         1 ADP1101   0.0000
    25 C2          38.9330    94.6140   112.9590 C.ar         1 ADP1101   0.0000
    26 N3          39.9310    95.3670   112.5050 N.ar         1 ADP1101   0.0000
    27 C4          41.1900    95.1230   112.8910 C.ar         1 ADP1101   0.0000
    28 H5'1        46.5198    96.7738   111.1467 H            1 ADP1101   0.0000
    29 H5'2        46.6598    98.1800   111.9651 H            1 ADP1101   0.0000
    30 H4'         44.7288    98.3460   110.7047 H            1 ADP1101   0.0000
    31 H3'         44.1329    97.9804   113.4795 H            1 ADP1101   0.0000
    32 H5          43.4029   100.2144   112.0155 H            1 ADP1101   0.0000
    33 H2'         41.8670    98.0792   113.0464 H            1 ADP1101   0.0000
    34 H7          42.5748    98.8884   110.4100 H            1 ADP1101   0.0000
    35 H1'         41.9044    96.6353   110.8941 H            1 ADP1101   0.0000
    36 H9          44.2899    95.1763   113.2527 H            1 ADP1101   0.0000
    37 H10         39.7377    91.7806   115.5159 H            1 ADP1101   0.0000
    38 H11         41.4396    92.1022   115.5031 H            1 ADP1101   0.0000
    39 H12         38.0092    94.7995   112.6241 H            1 ADP1101   0.0000
@<TRIPOS>BOND
     1    1    2      ar
     2    1    3      ar
     3    1    4      ar
     4    1    8       1
     5    5    6      ar
     6    5    7      ar
     7    5    8       1
     8    5    9       1
     9    9   10       1
    10   10   11       1
    11   11   12       1
    12   11   13       1
    13   12   17       1
    14   13   14       1
    15   13   15       1
    16   15   16       1
    17   15   17       1
    18   17   18       1
    19   18   19       1
    20   18   27       1
    21   19   20       2
    22   20   21       1
    23   21   22      ar
    24   21   27      ar
    25   22   23       1
    26   22   24      ar
    27   24   25      ar
    28   25   26      ar
    29   26   27      ar
    30   25   39       1
    31   23   38       1
    32   23   37       1
    33   10   28       1
    34   10   29       1
    35   11   30       1
    36   13   31       1
    37   14   32       1
    38   15   33       1
    39   16   34       1
    40   17   35       1
    41   19   36       1
@<TRIPOS>SUBSTRUCTURE
     1 ADP1101     1 GROUP             4 A     ADP     0 **** ADP A1101
