@<TRIPOS>MOLECULE
4xjc_TTP_3_ligand
   42    43     1     0     0
SMALL
NO_CHARGES


@<TRIPOS>ATOM
     1 PA          36.7850     5.8200    20.4060 P.3          1 TTP201   0.0000
     2 O1A         35.9460     4.6460    20.0220 O.co2        1 TTP201   0.0000
     3 O2A         37.8130     5.6110    21.4860 O.co2        1 TTP201  -1.0000
     4 O3A         37.5570     6.2780    19.0660 O.3          1 TTP201   0.0000
     5 PB          38.8960     5.5710    18.4580 P.3          1 TTP201   0.0000
     6 O1B         38.5560     5.2980    16.9940 O.co2        1 TTP201   0.0000
     7 O2B         39.3920     4.4430    19.3180 O.co2        1 TTP201  -1.0000
     8 O3B         39.8600     6.8560    18.6090 O.3          1 TTP201   0.0000
     9 PG          41.1290     6.8910    19.6530 P.3          1 TTP201   0.0000
    10 O1G         42.1100     6.0710    18.8260 O.co2        1 TTP201   0.0000
    11 O2G         41.4020     8.3470    19.8420 O.co2        1 TTP201  -1.0000
    12 O3G         40.5900     6.2200    20.9180 O.co2        1 TTP201  -1.0000
    13 O5'         36.0910     7.2260    20.5570 O.3          1 TTP201   0.0000
    14 C5'         36.9210     8.3120    20.8860 C.3          1 TTP201   0.0000
    15 C4'         36.0900     9.5750    21.0840 C.3          1 TTP201   0.0000
    16 O4'         35.2670     9.8510    19.9320 O.3          1 TTP201   0.0000
    17 C3'         35.1150     9.5760    22.2760 C.3          1 TTP201   0.0000
    18 O3'         35.7360     9.7330    23.5540 O.3          1 TTP201   0.0000
    19 C2'         34.2020    10.7560    21.8750 C.3          1 TTP201   0.0000
    20 C1'         34.1610    10.6810    20.3160 C.3          1 TTP201   0.0000
    21 N1          32.8440    10.1260    19.9020 N.pl3        1 TTP201   0.0000
    22 C2          32.0370    10.7890    18.9210 C.2          1 TTP201   0.0000
    23 O2          32.3990    11.8400    18.3170 O.2          1 TTP201   0.0000
    24 N3          30.8320    10.2950    18.5880 N.pl3        1 TTP201   0.0000
    25 C4          30.3460     9.1760    19.1430 C.2          1 TTP201   0.0000
    26 O4          29.2130     8.7310    18.8020 O.2          1 TTP201   0.0000
    27 C5          31.1640     8.4520    20.1420 C.2          1 TTP201   0.0000
    28 C5M         30.6340     7.1880    20.8000 C.3          1 TTP201   0.0000
    29 C6          32.4070     8.9850    20.4730 C.2          1 TTP201   0.0000
    30 H5'1        37.5767     8.4616    20.1460 H            1 TTP201   0.0000
    31 H5'2        37.4138     8.1059    21.7314 H            1 TTP201   0.0000
    32 H4'         36.7204    10.3422    21.2021 H            1 TTP201   0.0000
    33 H3'         34.5831     8.7292    22.2687 H            1 TTP201   0.0000
    34 H5          36.3790     8.9825    23.7066 H            1 TTP201   0.0000
    35 H2'1        34.5895    11.6260    22.1799 H            1 TTP201   0.0000
    36 H2'2        33.2863    10.6453    22.2613 H            1 TTP201   0.0000
    37 H1'         34.2770    11.5967    19.9312 H            1 TTP201   0.0000
    38 H9          30.2818    10.7767    17.9059 H            1 TTP201   0.0000
    39 H5M1        31.3147     6.8361    21.4426 H            1 TTP201   0.0000
    40 H5M2        29.7886     7.3973    21.2914 H            1 TTP201   0.0000
    41 H5M3        30.4501     6.4991    20.0988 H            1 TTP201   0.0000
    42 H13         32.9829     8.5159    21.1425 H            1 TTP201   0.0000
@<TRIPOS>BOND
     1    1    2      ar
     2    1    3      ar
     3    1    4       1
     4    1   13       1
     5    4    5       1
     6    5    6      ar
     7    5    7      ar
     8    5    8       1
     9    8    9       1
    10    9   10      ar
    11    9   11      ar
    12    9   12      ar
    13   13   14       1
    14   14   15       1
    15   15   16       1
    16   15   17       1
    17   16   20       1
    18   17   18       1
    19   17   19       1
    20   19   20       1
    21   20   21       1
    22   21   22       1
    23   21   29       1
    24   22   23       2
    25   22   24       1
    26   24   25       1
    27   25   26       2
    28   25   27       1
    29   27   28       1
    30   27   29       2
    31   29   42       1
    32   28   41       1
    33   28   40       1
    34   28   39       1
    35   14   30       1
    36   14   31       1
    37   15   32       1
    38   17   33       1
    39   18   34       1
    40   19   35       1
    41   19   36       1
    42   20   37       1
    43   24   38       1
@<TRIPOS>SUBSTRUCTURE
     1 TTP201      1 GROUP             4 C     TTP     0 **** TTP C 201
