@<TRIPOS>MOLECULE
3zkp_ERB_1_ligand
  118   120     1     0     0
SMALL
NO_CHARGES


@<TRIPOS>ATOM
     1 C1          15.3110    -2.5370    30.2640 C.2          1 ERB413   0.0000
     2 N1           8.6290    -6.8780    24.4300 N.4          1 ERB413   1.0000
     3 O1          16.4040    -2.9500    29.8950 O.2          1 ERB413   0.0000
     4 C2          14.2850    -3.3500    31.0290 C.3          1 ERB413   0.0000
     5 O2          14.8960    -1.1940    29.9780 O.3          1 ERB413   0.0000
     6 C3          13.7620    -4.5710    30.2340 C.3          1 ERB413   0.0000
     7 O3          12.5580    -5.0080    30.8920 O.3          1 ERB413   0.0000
     8 C4          13.4850    -4.2210    28.7620 C.3          1 ERB413   0.0000
     9 O4          11.1340    -6.7610    30.3240 O.3          1 ERB413   0.0000
    10 C5          13.6580    -5.4430    27.8190 C.3          1 ERB413   0.0000
    11 O5          11.1020    -5.1570    33.5990 O.3          1 ERB413   0.0000
    12 C6          15.0500    -5.5510    27.1820 C.3          1 ERB413   0.0000
    13 O6           8.6210    -6.2890    32.9340 O.3          1 ERB413   0.0000
    14 C7          15.1600    -4.5000    26.0570 C.3          1 ERB413   0.0000
    15 O7          12.7190    -5.4040    26.7380 O.3          1 ERB413   0.0000
    16 C8          16.5380    -3.8900    25.7470 C.3          1 ERB413   0.0000
    17 O8          10.2890    -4.6940    25.4200 O.3          1 ERB413   0.0000
    18 C9          16.3970    -2.5840    24.9740 C.2          1 ERB413   0.0000
    19 O9          12.0010    -7.6230    26.8790 O.3          1 ERB413   0.0000
    20 C10         15.8670    -1.3020    25.6210 C.3          1 ERB413   0.0000
    21 O10         16.0610    -5.3630    28.1770 O.3          1 ERB413   0.0000
    22 C11         16.2250    -1.2540    27.1100 C.3          1 ERB413   0.0000
    23 O11         16.6900    -2.5420    23.7940 O.2          1 ERB413   0.0000
    24 C12         15.5160    -0.1390    27.8980 C.3          1 ERB413   0.0000
    25 O12         17.6510    -1.1440    27.2250 O.3          1 ERB413   0.0000
    26 C13         15.8000    -0.2660    29.3990 C.3          1 ERB413   0.0000
    27 C14         12.3630    -6.4280    30.9980 C.3          1 ERB413   0.0000
    28 C15         12.3370    -6.9010    32.4680 C.3          1 ERB413   0.0000
    29 C16         11.0440    -6.5430    33.2310 C.3          1 ERB413   0.0000
    30 C17          9.8200    -6.7770    32.3290 C.3          1 ERB413   0.0000
    31 C18          9.9800    -6.1790    30.9240 C.3          1 ERB413   0.0000
    32 C19         10.9930    -7.3950    34.5210 C.3          1 ERB413   0.0000
    33 C20         10.7660    -4.6820    34.9150 C.3          1 ERB413   0.0000
    34 C21          8.7760    -6.4480    30.0250 C.3          1 ERB413   0.0000
    35 C22         11.5710    -6.2610    26.8240 C.3          1 ERB413   0.0000
    36 C23         10.6910    -6.0760    25.5860 C.3          1 ERB413   0.0000
    37 C24          9.4910    -7.0420    25.6430 C.3          1 ERB413   0.0000
    38 C25          9.9770    -8.4860    25.8820 C.3          1 ERB413   0.0000
    39 C26         10.9280    -8.5520    27.0790 C.3          1 ERB413   0.0000
    40 C27         11.5480    -9.9470    27.2390 C.3          1 ERB413   0.0000
    41 C28          9.2260    -7.3270    23.1380 C.3          1 ERB413   0.0000
    42 C29          7.3480    -7.5820    24.6160 C.3          1 ERB413   0.0000
    43 C30         14.8070    -3.6740    32.4370 C.3          1 ERB413   0.0000
    44 C31         12.1250    -3.5150    28.6120 C.3          1 ERB413   0.0000
    45 C32         15.2510    -6.9660    26.6130 C.3          1 ERB413   0.0000
    46 C33         17.4210    -4.9050    25.0000 C.3          1 ERB413   0.0000
    47 C34         16.3260    -0.0300    24.8940 C.3          1 ERB413   0.0000
    48 C35         14.0160    -0.0800    27.5620 C.3          1 ERB413   0.0000
    49 C36         15.5120     1.0310    30.1480 C.3          1 ERB413   0.0000
    50 C37         15.9160     0.8870    31.6050 C.3          1 ERB413   0.0000
    51 H1          13.4973    -2.7478    31.1589 H            1 ERB413   0.0000
    52 H2          14.4416    -5.3035    30.2742 H            1 ERB413   0.0000
    53 H3          14.1810    -3.5551    28.4934 H            1 ERB413   0.0000
    54 H4          13.4908    -6.2741    28.3494 H            1 ERB413   0.0000
    55 H5           8.4790    -5.3349    32.6703 H            1 ERB413   0.0000
    56 H6          14.5517    -3.7444    26.2998 H            1 ERB413   0.0000
    57 H7          14.8343    -4.9333    25.2167 H            1 ERB413   0.0000
    58 H8          16.9825    -3.6822    26.6183 H            1 ERB413   0.0000
    59 H9          10.9961    -4.0939    25.7941 H            1 ERB413   0.0000
    60 H10         14.8694    -1.3322    25.5593 H            1 ERB413   0.0000
    61 H11         16.9637    -5.4351    27.7528 H            1 ERB413   0.0000
    62 H12         15.9556    -2.1281    27.5141 H            1 ERB413   0.0000
    63 H13         15.9153     0.7276    27.5988 H            1 ERB413   0.0000
    64 H14         18.0823    -1.9362    26.7932 H            1 ERB413   0.0000
    65 H15         16.7446    -0.5559    29.5526 H            1 ERB413   0.0000
    66 H16         13.1171    -6.8881    30.5294 H            1 ERB413   0.0000
    67 H17         13.1084    -6.4803    32.9455 H            1 ERB413   0.0000
    68 H18         12.4409    -7.8955    32.4783 H            1 ERB413   0.0000
    69 H19          9.7163    -7.7657    32.2205 H            1 ERB413   0.0000
    70 H20         10.1152    -5.1913    31.0025 H            1 ERB413   0.0000
    71 H21         10.9523    -8.3644    34.2788 H            1 ERB413   0.0000
    72 H22         11.8125    -7.2220    35.0673 H            1 ERB413   0.0000
    73 H23         10.1812    -7.1494    35.0508 H            1 ERB413   0.0000
    74 H24         10.8763    -3.6887    34.9491 H            1 ERB413   0.0000
    75 H25          9.8171    -4.9194    35.1229 H            1 ERB413   0.0000
    76 H26         11.3711    -5.1078    35.5877 H            1 ERB413   0.0000
    77 H27          7.9576    -6.0446    30.4343 H            1 ERB413   0.0000
    78 H28          8.9341    -6.0409    29.1254 H            1 ERB413   0.0000
    79 H29          8.6475    -7.4348    29.9263 H            1 ERB413   0.0000
    80 H30         11.0465    -6.0399    27.6462 H            1 ERB413   0.0000
    81 H31         11.2396    -6.3264    24.7883 H            1 ERB413   0.0000
    82 H32          8.9391    -6.7811    26.4351 H            1 ERB413   0.0000
    83 H33         10.4555    -8.8096    25.0657 H            1 ERB413   0.0000
    84 H34          9.1865    -9.0722    26.0594 H            1 ERB413   0.0000
    85 H35         10.4307    -8.3114    27.9126 H            1 ERB413   0.0000
    86 H36         10.8222   -10.6201    27.3807 H            1 ERB413   0.0000
    87 H37         12.0621   -10.1799    26.4135 H            1 ERB413   0.0000
    88 H38         12.1636    -9.9498    28.0270 H            1 ERB413   0.0000
    89 H39          8.5716    -7.1741    22.3975 H            1 ERB413   0.0000
    90 H40         10.0608    -6.8067    22.9579 H            1 ERB413   0.0000
    91 H41          9.4457    -8.3010    23.1930 H            1 ERB413   0.0000
    92 H42          6.7819    -7.4651    23.8000 H            1 ERB413   0.0000
    93 H43          7.5212    -8.5556    24.7648 H            1 ERB413   0.0000
    94 H44          6.8715    -7.2031    25.4094 H            1 ERB413   0.0000
    95 H45         14.1224    -4.2098    32.9312 H            1 ERB413   0.0000
    96 H46         15.6542    -4.2004    32.3655 H            1 ERB413   0.0000
    97 H47         14.9842    -2.8227    32.9309 H            1 ERB413   0.0000
    98 H48         11.9667    -3.2976    27.6488 H            1 ERB413   0.0000
    99 H49         11.3983    -4.1179    28.9414 H            1 ERB413   0.0000
   100 H50         12.1266    -2.6710    29.1484 H            1 ERB413   0.0000
   101 H51         16.1587    -7.0329    26.1988 H            1 ERB413   0.0000
   102 H52         15.1710    -7.6364    27.3507 H            1 ERB413   0.0000
   103 H53         14.5539    -7.1486    25.9196 H            1 ERB413   0.0000
   104 H54         18.3115    -4.4932    24.8065 H            1 ERB413   0.0000
   105 H55         17.5463    -5.7189    25.5673 H            1 ERB413   0.0000
   106 H56         16.9790    -5.1625    24.1407 H            1 ERB413   0.0000
   107 H57         15.9516     0.7727    25.3582 H            1 ERB413   0.0000
   108 H58         17.3249     0.0162    24.9016 H            1 ERB413   0.0000
   109 H59         16.0004    -0.0505    23.9487 H            1 ERB413   0.0000
   110 H60         13.5850     0.6526    28.0888 H            1 ERB413   0.0000
   111 H61         13.9000     0.0992    26.5850 H            1 ERB413   0.0000
   112 H62         13.5879    -0.9535    27.7938 H            1 ERB413   0.0000
   113 H63         14.5346     1.2354    30.0935 H            1 ERB413   0.0000
   114 H64         16.0322     1.7768    29.7318 H            1 ERB413   0.0000
   115 H65         15.7246     1.7404    32.0899 H            1 ERB413   0.0000
   116 H66         15.3959     0.1422    32.0231 H            1 ERB413   0.0000
   117 H67         16.8935     0.6836    31.6613 H            1 ERB413   0.0000
   118 H68          8.4231    -5.9035    24.3404 H            1 ERB413   0.0000
@<TRIPOS>BOND
     1    1    3       2
     2    1    4       1
     3    1    5       1
     4    2   37       1
     5    2   41       1
     6    2   42       1
     7    4    6       1
     8    4   43       1
     9    5   26       1
    10    6    7       1
    11    6    8       1
    12    7   27       1
    13    8   10       1
    14    8   44       1
    15    9   27       1
    16    9   31       1
    17   10   12       1
    18   10   15       1
    19   11   29       1
    20   11   33       1
    21   12   14       1
    22   12   21       1
    23   12   45       1
    24   13   30       1
    25   14   16       1
    26   15   35       1
    27   16   18       1
    28   16   46       1
    29   17   36       1
    30   18   20       1
    31   18   23       2
    32   19   35       1
    33   19   39       1
    34   20   22       1
    35   20   47       1
    36   22   24       1
    37   22   25       1
    38   24   26       1
    39   24   48       1
    40   26   49       1
    41   27   28       1
    42   28   29       1
    43   29   30       1
    44   29   32       1
    45   30   31       1
    46   31   34       1
    47   35   36       1
    48   36   37       1
    49   37   38       1
    50   38   39       1
    51   39   40       1
    52   49   50       1
    53    4   51       1
    54    6   52       1
    55    8   53       1
    56   10   54       1
    57   13   55       1
    58   14   56       1
    59   14   57       1
    60   16   58       1
    61   17   59       1
    62   20   60       1
    63   21   61       1
    64   22   62       1
    65   24   63       1
    66   25   64       1
    67   26   65       1
    68   27   66       1
    69   28   67       1
    70   28   68       1
    71   30   69       1
    72   31   70       1
    73   32   71       1
    74   32   72       1
    75   32   73       1
    76   33   74       1
    77   33   75       1
    78   33   76       1
    79   34   77       1
    80   34   78       1
    81   34   79       1
    82   35   80       1
    83   36   81       1
    84   37   82       1
    85   38   83       1
    86   38   84       1
    87   39   85       1
    88   40   86       1
    89   40   87       1
    90   40   88       1
    91   41   89       1
    92   41   90       1
    93   41   91       1
    94   42   92       1
    95   42   93       1
    96   42   94       1
    97   43   95       1
    98   43   96       1
    99   43   97       1
   100   44   98       1
   101   44   99       1
   102   44  100       1
   103   45  101       1
   104   45  102       1
   105   45  103       1
   106   46  104       1
   107   46  105       1
   108   46  106       1
   109   47  107       1
   110   47  108       1
   111   47  109       1
   112   48  110       1
   113   48  111       1
   114   48  112       1
   115   49  113       1
   116   49  114       1
   117   50  115       1
   118   50  116       1
   119   50  117       1
   120    2  118       1
@<TRIPOS>SUBSTRUCTURE
     1 ERB413      1 GROUP             4 A     ERB     0 **** ERB A 413
