@<TRIPOS>MOLECULE
3aiq_HBO_1_ligand
   24    25     1     0     0
SMALL
NO_CHARGES


@<TRIPOS>ATOM
     1 O1A         -1.9480     4.8580   -39.9540 O.3          1 HBO4134   0.0000
     2 C3B         -0.5660     2.9470   -39.4290 C.2          1 HBO4134   0.0000
     3 N3B         -1.0040     1.7700   -40.0320 N.am         1 HBO4134   0.0000
     4 C4B         -1.5450     1.8410   -41.3530 C.ar         1 HBO4134   0.0000
     5 C1B         -1.2910     3.0090   -42.1420 C.ar         1 HBO4134   0.0000
     6 O1B         -0.5210     4.0540   -41.6480 O.3          1 HBO4134   0.0000
     7 C2B         -0.6710     4.2640   -40.2100 C.3          1 HBO4134   0.0000
     8 C5B         -2.3340     0.7780   -41.8730 C.ar         1 HBO4134   0.0000
     9 C6B         -2.8750     0.8740   -43.1740 C.ar         1 HBO4134   0.0000
    10 C8B         -1.8410     3.0930   -43.4480 C.ar         1 HBO4134   0.0000
    11 O3B         -0.1080     2.9340   -38.2860 O.2          1 HBO4134   0.0000
    12 OHB         -0.9340     0.5370   -39.3440 O.3          1 HBO4134   0.0000
    13 C7B         -2.6330     2.0410   -43.9760 C.ar         1 HBO4134   0.0000
    14 O7B         -3.1450     2.2010   -45.2670 O.3          1 HBO4134   0.0000
    15 C9B         -3.9390     1.0630   -45.6890 C.3          1 HBO4134   0.0000
    16 H1A         -2.0235     5.7172   -40.4601 H            1 HBO4134   0.0000
    17 H2B          0.0459     4.8863   -39.8958 H            1 HBO4134   0.0000
    18 H5B         -2.5054    -0.0362   -41.3182 H            1 HBO4134   0.0000
    19 H6B         -3.4293     0.1259   -43.5388 H            1 HBO4134   0.0000
    20 H8B         -1.6676     3.9058   -44.0041 H            1 HBO4134   0.0000
    21 HHB         -0.1625     0.5535   -38.7080 H            1 HBO4134   0.0000
    22 H9B1        -4.2830     1.2214   -46.6145 H            1 HBO4134   0.0000
    23 H9B2        -3.3719     0.2394   -45.6806 H            1 HBO4134   0.0000
    24 H9B3        -4.7095     0.9436   -45.0629 H            1 HBO4134   0.0000
@<TRIPOS>BOND
     1    1    7       1
     2    2    3      am
     3    2    7       1
     4    2   11       2
     5    3    4       1
     6    3   12       1
     7    4    5      ar
     8    4    8      ar
     9    5    6       1
    10    5   10      ar
    11    6    7       1
    12    8    9      ar
    13    9   13      ar
    14   10   13      ar
    15   13   14       1
    16   14   15       1
    17    1   16       1
    18    7   17       1
    19    8   18       1
    20    9   19       1
    21   10   20       1
    22   12   21       1
    23   15   22       1
    24   15   23       1
    25   15   24       1
@<TRIPOS>SUBSTRUCTURE
     1 HBO4134     1 GROUP             4 A     HBO     0 **** HBO A4134
