@<TRIPOS>MOLECULE
3w2w_ATP_2_ligand
   43    45     1     0     0
SMALL
NO_CHARGES


@<TRIPOS>ATOM
     1 PG          16.0850    44.0180    15.1460 P.3          1 ATP903   0.0000
     2 O1G         14.8040    44.2930    15.8330 O.co2        1 ATP903   0.0000
     3 O2G         16.3350    44.8480    13.9450 O.co2        1 ATP903  -1.0000
     4 O3G         17.2450    43.9240    16.0590 O.co2        1 ATP903  -1.0000
     5 PB          16.7470    41.2630    15.0550 P.3          1 ATP903   0.0000
     6 O1B         16.3370    40.0430    14.0870 O.co2        1 ATP903   0.0000
     7 O2B         18.1950    41.4570    15.2840 O.co2        1 ATP903  -1.0000
     8 O3B         15.8930    42.5340    14.5470 O.3          1 ATP903   0.0000
     9 PA          16.7120    40.9800    17.8740 P.3          1 ATP903   0.0000
    10 O1A         15.7420    41.1760    18.9720 O.co2        1 ATP903   0.0000
    11 O2A         17.9670    41.7590    17.7900 O.co2        1 ATP903  -1.0000
    12 O3A         16.0100    40.8480    16.4280 O.3          1 ATP903   0.0000
    13 O5'         17.1960    39.4560    18.0660 O.3          1 ATP903   0.0000
    14 C5'         17.9180    38.7720    17.0390 C.3          1 ATP903   0.0000
    15 C4'         18.2050    37.3490    17.5190 C.3          1 ATP903   0.0000
    16 O4'         18.9270    36.5610    16.5610 O.3          1 ATP903   0.0000
    17 C3'         19.1590    37.3610    18.6980 C.3          1 ATP903   0.0000
    18 O3'         18.4600    37.8050    19.8690 O.3          1 ATP903   0.0000
    19 C2'         19.3670    35.8620    18.7850 C.3          1 ATP903   0.0000
    20 O2'         18.1870    35.2610    19.3390 O.3          1 ATP903   0.0000
    21 C1'         19.5040    35.4810    17.3170 C.3          1 ATP903   0.0000
    22 N9          20.9190    35.3370    16.9050 N.pl3        1 ATP903   0.0000
    23 C8          21.9050    36.2030    17.1180 C.2          1 ATP903   0.0000
    24 N7          23.0090    35.7020    16.5690 N.2          1 ATP903   0.0000
    25 C5          22.7050    34.5290    16.0200 C.ar         1 ATP903   0.0000
    26 C6          23.4560    33.6280    15.3890 C.ar         1 ATP903   0.0000
    27 N6          24.7400    33.9330    15.2230 N.pl3        1 ATP903   0.0000
    28 N1          22.9500    32.4730    14.9370 N.ar         1 ATP903   0.0000
    29 C2          21.5880    32.2120    15.1240 C.ar         1 ATP903   0.0000
    30 N3          20.8250    33.1810    15.7860 N.ar         1 ATP903   0.0000
    31 C4          21.4080    34.3070    16.2200 C.ar         1 ATP903   0.0000
    32 H5'1        18.7788    39.2474    16.8570 H            1 ATP903   0.0000
    33 H5'2        17.3702    38.7426    16.2029 H            1 ATP903   0.0000
    34 H4'         17.3522    36.8910    17.7699 H            1 ATP903   0.0000
    35 H3'         20.0019    37.8694    18.5218 H            1 ATP903   0.0000
    36 H5          17.7310    38.4356    19.6030 H            1 ATP903   0.0000
    37 H2'         20.1860    35.6286    19.3092 H            1 ATP903   0.0000
    38 H7          17.7434    35.9078    19.9594 H            1 ATP903   0.0000
    39 H1'         19.0068    34.6325    17.1358 H            1 ATP903   0.0000
    40 H9          21.8305    37.0741    17.6034 H            1 ATP903   0.0000
    41 H10         25.3497    33.2927    14.7558 H            1 ATP903   0.0000
    42 H11         25.0957    34.8026    15.5654 H            1 ATP903   0.0000
    43 H12         21.1742    31.3628    14.7961 H            1 ATP903   0.0000
@<TRIPOS>BOND
     1    1    2      ar
     2    1    3      ar
     3    1    4      ar
     4    1    8       1
     5    5    6      ar
     6    5    7      ar
     7    5    8       1
     8    5   12       1
     9    9   10      ar
    10    9   11      ar
    11    9   12       1
    12    9   13       1
    13   13   14       1
    14   14   15       1
    15   15   16       1
    16   15   17       1
    17   16   21       1
    18   17   18       1
    19   17   19       1
    20   19   20       1
    21   19   21       1
    22   21   22       1
    23   22   23       1
    24   22   31       1
    25   23   24       2
    26   24   25       1
    27   25   26      ar
    28   25   31      ar
    29   26   27       1
    30   26   28      ar
    31   28   29      ar
    32   29   30      ar
    33   30   31      ar
    34   29   43       1
    35   27   42       1
    36   27   41       1
    37   23   40       1
    38   14   32       1
    39   14   33       1
    40   15   34       1
    41   17   35       1
    42   18   36       1
    43   19   37       1
    44   20   38       1
    45   21   39       1
@<TRIPOS>SUBSTRUCTURE
     1 ATP903      1 GROUP             4 A     ATP     0 **** ATP A 903
