@<TRIPOS>MOLECULE
1eno_NAD_1_ligand
   70    74     1     0     0
SMALL
NO_CHARGES


@<TRIPOS>ATOM
     1 PA           2.8550    19.6040    38.8440 P.3          1 NAD501   0.0000
     2 O1A          1.4830    19.2780    38.3810 O.co2        1 NAD501   0.0000
     3 O2A          3.5640    20.4720    37.8750 O.co2        1 NAD501  -1.0000
     4 O5B          3.6750    18.2490    39.0630 O.3          1 NAD501   0.0000
     5 C5B          3.8010    17.3190    37.9800 C.3          1 NAD501   0.0000
     6 C4B          5.1330    17.5140    37.3090 C.3          1 NAD501   0.0000
     7 O4B          5.3850    16.3760    36.4510 O.3          1 NAD501   0.0000
     8 C3B          5.2600    18.7560    36.4240 C.3          1 NAD501   0.0000
     9 O3B          6.5560    19.3670    36.5980 O.3          1 NAD501   0.0000
    10 C2B          4.9990    18.1570    35.0430 C.3          1 NAD501   0.0000
    11 O2B          5.5600    18.9250    33.9660 O.3          1 NAD501   0.0000
    12 C1B          5.6680    16.8080    35.1610 C.3          1 NAD501   0.0000
    13 N9A          5.1970    15.8420    34.1970 N.pl3        1 NAD501   0.0000
    14 C8A          3.9330    15.4450    33.8980 C.2          1 NAD501   0.0000
    15 N7A          3.9160    14.4580    32.9960 N.2          1 NAD501   0.0000
    16 C5A          5.2560    14.2430    32.6890 C.ar         1 NAD501   0.0000
    17 C6A          5.9170    13.3490    31.8010 C.ar         1 NAD501   0.0000
    18 N6A          5.2980    12.4510    31.0380 N.pl3        1 NAD501   0.0000
    19 N1A          7.2720    13.4320    31.7360 N.ar         1 NAD501   0.0000
    20 C2A          7.9160    14.3490    32.5170 C.ar         1 NAD501   0.0000
    21 N3A          7.4090    15.2010    33.3610 N.ar         1 NAD501   0.0000
    22 C4A          6.0560    15.1030    33.4060 C.ar         1 NAD501   0.0000
    23 O3           2.8880    20.1660    40.2890 O.3          1 NAD501   0.0000
    24 PN           3.1110    19.4130    41.7270 P.3          1 NAD501   0.0000
    25 O1N          1.8890    18.6510    42.0770 O.co2        1 NAD501   0.0000
    26 O2N          3.4600    20.3810    42.7790 O.co2        1 NAD501  -1.0000
    27 O5D          4.3210    18.4720    41.3610 O.3          1 NAD501   0.0000
    28 C5D          4.0540    17.0940    41.2840 C.3          1 NAD501   0.0000
    29 C4D          4.5740    16.4320    42.5040 C.3          1 NAD501   0.0000
    30 O4D          3.5120    16.3210    43.4930 O.3          1 NAD501   0.0000
    31 C3D          5.0540    15.0890    42.2270 C.3          1 NAD501   0.0000
    32 O3D          6.1830    14.6660    43.0170 O.3          1 NAD501   0.0000
    33 C2D          3.8230    14.3030    42.5770 C.3          1 NAD501   0.0000
    34 O2D          4.3540    13.1270    42.7050 O.3          1 NAD501   0.0000
    35 C1D          3.2870    14.9820    43.8360 C.3          1 NAD501   0.0000
    36 N1N          1.8010    14.7330    44.1230 N.ar         1 NAD501   1.0000
    37 C2N          1.1970    14.9940    45.4110 C.ar         1 NAD501   0.0000
    38 C3N         -0.1660    14.8890    45.5190 C.ar         1 NAD501   0.0000
    39 C7N         -0.8220    15.2050    46.9250 C.2          1 NAD501   0.0000
    40 O7N         -0.1140    15.6150    47.8420 O.2          1 NAD501   0.0000
    41 N7N         -2.1430    14.9740    47.0420 N.am         1 NAD501   0.0000
    42 C4N         -0.9960    14.3920    44.4800 C.ar         1 NAD501   0.0000
    43 C5N         -0.2890    14.0560    43.3280 C.ar         1 NAD501   0.0000
    44 C6N          1.0400    14.1890    43.0770 C.ar         1 NAD501   0.0000
    45 H5B1         3.0677    17.4755    37.3184 H            1 NAD501   0.0000
    46 H5B2         3.7382    16.3853    38.3326 H            1 NAD501   0.0000
    47 H4B          5.8434    17.5481    38.0120 H            1 NAD501   0.0000
    48 H3B          4.5406    19.4120    36.6523 H            1 NAD501   0.0000
    49 H5           7.2000    18.9758    35.9405 H            1 NAD501   0.0000
    50 H2B          4.0160    18.0393    34.9023 H            1 NAD501   0.0000
    51 H7           6.5514    18.9866    34.0816 H            1 NAD501   0.0000
    52 H1B          6.6566    16.9200    35.0599 H            1 NAD501   0.0000
    53 H8A          3.1113    15.8441    34.3048 H            1 NAD501   0.0000
    54 H6A1         5.8295    11.8546    30.4365 H            1 NAD501   0.0000
    55 H6A2         4.3015    12.3728    31.0663 H            1 NAD501   0.0000
    56 H2A          8.9119    14.3687    32.4286 H            1 NAD501   0.0000
    57 H5D1         4.5031    16.7102    40.4771 H            1 NAD501   0.0000
    58 H5D2         3.0671    16.9470    41.2177 H            1 NAD501   0.0000
    59 H4D          5.3215    16.9780    42.8825 H            1 NAD501   0.0000
    60 H3D          5.2594    14.9911    41.2532 H            1 NAD501   0.0000
    61 H17          6.9532    15.2828    42.8547 H            1 NAD501   0.0000
    62 H2D          3.1521    14.3234    41.8357 H            1 NAD501   0.0000
    63 H19          4.6431    12.9932    43.6529 H            1 NAD501   0.0000
    64 H1D          3.8408    14.7291    44.6293 H            1 NAD501   0.0000
    65 H2N          1.7575    15.2440    46.2005 H            1 NAD501   0.0000
    66 H7N1        -2.6077    15.1565    47.9085 H            1 NAD501   0.0000
    67 H7N2        -2.6596    14.6199    46.2624 H            1 NAD501   0.0000
    68 H4N         -1.9873    14.2932    44.5665 H            1 NAD501   0.0000
    69 H5N         -0.8325    13.6641    42.5856 H            1 NAD501   0.0000
    70 H6N          1.4482    13.9174    42.2054 H            1 NAD501   0.0000
@<TRIPOS>BOND
     1    1    2      ar
     2    1    3      ar
     3    1    4       1
     4    1   23       1
     5    4    5       1
     6    5    6       1
     7    6    7       1
     8    6    8       1
     9    7   12       1
    10    8    9       1
    11    8   10       1
    12   10   11       1
    13   10   12       1
    14   12   13       1
    15   13   14       1
    16   13   22       1
    17   14   15       2
    18   15   16       1
    19   16   17      ar
    20   16   22      ar
    21   17   18       1
    22   17   19      ar
    23   19   20      ar
    24   20   21      ar
    25   21   22      ar
    26   23   24       1
    27   24   25      ar
    28   24   26      ar
    29   24   27       1
    30   27   28       1
    31   28   29       1
    32   29   30       1
    33   29   31       1
    34   30   35       1
    35   31   32       1
    36   31   33       1
    37   33   34       1
    38   33   35       1
    39   35   36       1
    40   36   37      ar
    41   36   44      ar
    42   37   38      ar
    43   38   39       1
    44   38   42      ar
    45   39   40       2
    46   39   41      am
    47   42   43      ar
    48   43   44      ar
    49   44   70       1
    50    5   45       1
    51    5   46       1
    52    6   47       1
    53    8   48       1
    54    9   49       1
    55   10   50       1
    56   11   51       1
    57   12   52       1
    58   14   53       1
    59   18   54       1
    60   18   55       1
    61   20   56       1
    62   43   69       1
    63   28   57       1
    64   28   58       1
    65   29   59       1
    66   31   60       1
    67   32   61       1
    68   33   62       1
    69   34   63       1
    70   35   64       1
    71   37   65       1
    72   41   66       1
    73   41   67       1
    74   42   68       1
@<TRIPOS>SUBSTRUCTURE
     1 NAD501      1 GROUP             4 A     NAD     0 **** NAD A 501
