@<TRIPOS>MOLECULE
3ln3_NAD_1_ligand
   70    74     1     0     0
SMALL
NO_CHARGES


@<TRIPOS>ATOM
     1 PA          29.0880     1.9700    -3.0130 P.3          1 NAD327   0.0000
     2 O1A         29.0570     0.6170    -2.5250 O.co2        1 NAD327   0.0000
     3 O2A         28.0820     2.3250    -4.0290 O.co2        1 NAD327  -1.0000
     4 O5B         30.5220     2.1620    -3.5420 O.3          1 NAD327   0.0000
     5 C5B         30.9520     3.2270    -4.3050 C.3          1 NAD327   0.0000
     6 C4B         32.2770     2.8990    -4.9200 C.3          1 NAD327   0.0000
     7 O4B         32.0380     2.0690    -6.0620 O.3          1 NAD327   0.0000
     8 C3B         32.9010     4.1780    -5.4310 C.3          1 NAD327   0.0000
     9 O3B         33.8600     4.7830    -4.5700 O.3          1 NAD327   0.0000
    10 C2B         33.5010     3.7610    -6.7750 C.3          1 NAD327   0.0000
    11 O2B         34.8930     3.5720    -6.6990 O.3          1 NAD327   0.0000
    12 C1B         32.9190     2.4040    -7.0970 C.3          1 NAD327   0.0000
    13 N9A         32.1600     2.3880    -8.3590 N.pl3        1 NAD327   0.0000
    14 C8A         30.8970     2.9120    -8.5810 C.2          1 NAD327   0.0000
    15 N7A         30.5630     2.6270    -9.8580 N.2          1 NAD327   0.0000
    16 C5A         31.5810     1.9490   -10.4480 C.ar         1 NAD327   0.0000
    17 C6A         31.6980     1.4920   -11.7630 C.ar         1 NAD327   0.0000
    18 N6A         30.6210     1.5330   -12.6830 N.pl3        1 NAD327   0.0000
    19 N1A         32.9240     0.8360   -12.0200 N.ar         1 NAD327   0.0000
    20 C2A         33.9390     0.7120   -11.0920 C.ar         1 NAD327   0.0000
    21 N3A         33.7950     1.1880    -9.8060 N.ar         1 NAD327   0.0000
    22 C4A         32.6020     1.7930    -9.5200 C.ar         1 NAD327   0.0000
    23 O3          29.2340     3.1240    -1.8880 O.3          1 NAD327   0.0000
    24 PN          28.7380     3.9750    -0.5810 P.3          1 NAD327   0.0000
    25 O1N         28.5930     5.4210    -0.9490 O.co2        1 NAD327   0.0000
    26 O2N         29.6260     3.6540     0.5450 O.co2        1 NAD327  -1.0000
    27 O5D         27.2690     3.3770    -0.3120 O.3          1 NAD327   0.0000
    28 C5D         26.1490     3.6880    -1.1670 C.3          1 NAD327   0.0000
    29 C4D         25.2080     4.7560    -0.5640 C.3          1 NAD327   0.0000
    30 O4D         24.6430     4.1370     0.5860 O.3          1 NAD327   0.0000
    31 C3D         25.8160     5.9880     0.1240 C.3          1 NAD327   0.0000
    32 O3D         26.4360     6.9330    -0.6970 O.3          1 NAD327   0.0000
    33 C2D         24.6260     6.4780     0.9510 C.3          1 NAD327   0.0000
    34 O2D         23.5860     7.1630     0.1980 O.3          1 NAD327   0.0000
    35 C1D         24.1340     5.1090     1.4830 C.3          1 NAD327   0.0000
    36 N1N         24.5990     4.7440     2.8610 N.ar         1 NAD327   1.0000
    37 C2N         23.6130     4.3100     3.7430 C.ar         1 NAD327   0.0000
    38 C3N         23.8600     3.9740     5.0720 C.ar         1 NAD327   0.0000
    39 C7N         22.7580     3.5360     5.9940 C.2          1 NAD327   0.0000
    40 O7N         23.1940     3.2610     7.2950 O.2          1 NAD327   0.0000
    41 N7N         21.4460     3.5140     5.6090 N.am         1 NAD327   0.0000
    42 C4N         25.1420     4.0300     5.5820 C.ar         1 NAD327   0.0000
    43 C5N         26.1610     4.3410     4.6510 C.ar         1 NAD327   0.0000
    44 C6N         25.9030     4.7590     3.3310 C.ar         1 NAD327   0.0000
    45 H5B1        31.0451     4.0363    -3.7250 H            1 NAD327   0.0000
    46 H5B2        30.2854     3.4097    -5.0277 H            1 NAD327   0.0000
    47 H4B         32.8767     2.4431    -4.2623 H            1 NAD327   0.0000
    48 H3B         32.1703     4.8387    -5.6031 H            1 NAD327   0.0000
    49 H5          33.8515     5.7737    -4.7055 H            1 NAD327   0.0000
    50 H2B         33.2711     4.4240    -7.4874 H            1 NAD327   0.0000
    51 H7          35.1385     3.2696    -5.7780 H            1 NAD327   0.0000
    52 H1B         33.6542     1.7276    -7.1413 H            1 NAD327   0.0000
    53 H8A         30.3366     3.4091    -7.9185 H            1 NAD327   0.0000
    54 H6A1        30.7471     1.1954   -13.6158 H            1 NAD327   0.0000
    55 H6A2        29.7349     1.8995   -12.3994 H            1 NAD327   0.0000
    56 H2A         34.7949     0.2684   -11.3578 H            1 NAD327   0.0000
    57 H5D1        25.6239     2.8511    -1.3215 H            1 NAD327   0.0000
    58 H5D2        26.4990     4.0278    -2.0399 H            1 NAD327   0.0000
    59 H4D         24.4980     5.0209    -1.2165 H            1 NAD327   0.0000
    60 H3D         26.5065     5.6568     0.7671 H            1 NAD327   0.0000
    61 H17         27.4035     6.7019    -0.7995 H            1 NAD327   0.0000
    62 H2D         24.9415     7.0511     1.7073 H            1 NAD327   0.0000
    63 H19         22.7018     7.0164     0.6416 H            1 NAD327   0.0000
    64 H1D         23.1346     5.0872     1.4576 H            1 NAD327   0.0000
    65 H2N         22.6754     4.2354     3.4035 H            1 NAD327   0.0000
    66 H7N1        20.7410     3.2157     6.2525 H            1 NAD327   0.0000
    67 H7N2        21.1916     3.7962     4.6840 H            1 NAD327   0.0000
    68 H4N         25.3378     3.8614     6.5481 H            1 NAD327   0.0000
    69 H5N         27.1133     4.2599     4.9453 H            1 NAD327   0.0000
    70 H6N         26.6508     5.0626     2.7405 H            1 NAD327   0.0000
@<TRIPOS>BOND
     1    1    2      ar
     2    1    3      ar
     3    1    4       1
     4    1   23       1
     5    4    5       1
     6    5    6       1
     7    6    7       1
     8    6    8       1
     9    7   12       1
    10    8    9       1
    11    8   10       1
    12   10   11       1
    13   10   12       1
    14   12   13       1
    15   13   14       1
    16   13   22       1
    17   14   15       2
    18   15   16       1
    19   16   17      ar
    20   16   22      ar
    21   17   18       1
    22   17   19      ar
    23   19   20      ar
    24   20   21      ar
    25   21   22      ar
    26   23   24       1
    27   24   25      ar
    28   24   26      ar
    29   24   27       1
    30   27   28       1
    31   28   29       1
    32   29   30       1
    33   29   31       1
    34   30   35       1
    35   31   32       1
    36   31   33       1
    37   33   34       1
    38   33   35       1
    39   35   36       1
    40   36   37      ar
    41   36   44      ar
    42   37   38      ar
    43   38   39       1
    44   38   42      ar
    45   39   40       2
    46   39   41      am
    47   42   43      ar
    48   43   44      ar
    49   44   70       1
    50    5   45       1
    51    5   46       1
    52    6   47       1
    53    8   48       1
    54    9   49       1
    55   10   50       1
    56   11   51       1
    57   12   52       1
    58   14   53       1
    59   18   54       1
    60   18   55       1
    61   20   56       1
    62   43   69       1
    63   28   57       1
    64   28   58       1
    65   29   59       1
    66   31   60       1
    67   32   61       1
    68   33   62       1
    69   34   63       1
    70   35   64       1
    71   37   65       1
    72   41   66       1
    73   41   67       1
    74   42   68       1
@<TRIPOS>SUBSTRUCTURE
     1 NAD327      1 GROUP             4 A     NAD     0 **** NAD A 327
