@<TRIPOS>MOLECULE
4pry_LEU_GLU_THR_ACE_ASA_1_ligand
   48    47     3     0     0
SMALL
NO_CHARGES


@<TRIPOS>ATOM
     1 N           41.6080    12.9060    74.6220 N.am         1 LEU402   0.0000
     2 CA          41.4690    13.0150    73.1810 C.3          1 LEU402   0.0000
     3 C           41.0480    11.6670    72.5850 C.2          1 LEU402   0.0000
     4 O           41.6500    10.6340    72.8730 O.2          1 LEU402   0.0000
     5 CB          42.7780    13.4960    72.5880 C.3          1 LEU402   0.0000
     6 CG          42.9060    14.1320    71.2180 C.3          1 LEU402   0.0000
     7 CD1         41.8790    15.2440    70.9680 C.3          1 LEU402   0.0000
     8 CD2         44.3060    14.6830    71.1540 C.3          1 LEU402   0.0000
     9 HA          40.7593    13.6897    72.9784 H            1 LEU402   0.0000
    10 HB1         43.3784    12.6965    72.5726 H            1 LEU402   0.0000
    11 HB2         43.1366    14.1698    73.2340 H            1 LEU402   0.0000
    12 HG          42.8002    13.4256    70.5182 H            1 LEU402   0.0000
    13 HD11        42.0138    15.6225    70.0522 H            1 LEU402   0.0000
    14 HD12        40.9555    14.8673    71.0404 H            1 LEU402   0.0000
    15 HD13        41.9983    15.9671    71.6484 H            1 LEU402   0.0000
    16 HD21        44.4524    15.1189    70.2660 H            1 LEU402   0.0000
    17 HD22        44.4323    15.3575    71.8814 H            1 LEU402   0.0000
    18 HD23        44.9630    13.9384    71.2721 H            1 LEU402   0.0000
    19 H14         42.1034    12.1308    75.0139 H            1 LEU402   0.0000
    20 N           40.0000    11.6870    71.7690 N.am         2 GLU403   0.0000
    21 CA          39.4120    10.4800    71.1950 C.3          2 GLU403   0.0000
    22 C           39.1990    10.6620    69.6890 C.2          2 GLU403   0.0000
    23 O           39.2610    11.7770    69.1990 O.2          2 GLU403   0.0000
    24 CB          38.0880    10.1520    71.9030 C.3          2 GLU403   0.0000
    25 CG          38.2620     9.9880    73.4490 C.3          2 GLU403   0.0000
    26 CD          36.9770     9.6560    74.2310 C.2          2 GLU403   0.0000
    27 OE1         35.8480     9.7130    73.6850 O.co2        2 GLU403   0.0000
    28 OE2         37.1090     9.3520    75.4380 O.co2        2 GLU403  -1.0000
    29 H15         39.5943    12.5710    71.5367 H            2 GLU403   0.0000
    30 H16         40.0454     9.7193    71.3369 H            2 GLU403   0.0000
    31 H17         37.7266     9.2982    71.5283 H            2 GLU403   0.0000
    32 H18         37.4392    10.8930    71.7298 H            2 GLU403   0.0000
    33 HG1         38.6293    10.8452    73.8101 H            2 GLU403   0.0000
    34 HG2         38.9185     9.2507    73.6084 H            2 GLU403   0.0000
    35 N           38.9790     9.5620    68.9720 N.am         3 THR404   0.0000
    36 CA          38.6580     9.6160    67.5470 C.3          3 THR404   0.0000
    37 C           37.2200     9.1880    67.3200 C.2          3 THR404   0.0000
    38 O           36.6510     8.4320    68.0930 O.2          3 THR404   0.0000
    39 CB          39.5650     8.7200    66.6790 C.3          3 THR404   0.0000
    40 OG1         39.5710     7.3830    67.2040 O.3          3 THR404   0.0000
    41 CG2         40.9880     9.2510    66.6290 C.3          3 THR404   0.0000
    42 H21         39.0351     8.6710    69.4224 H            3 THR404   0.0000
    43 H22         38.7585    10.5613    67.2367 H            3 THR404   0.0000
    44 HB          39.1982     8.6977    65.7490 H            3 THR404   0.0000
    45 H24         40.1600     6.8055    66.6386 H            3 THR404   0.0000
    46 HG21        41.5485     8.6493    66.0600 H            3 THR404   0.0000
    47 HG22        40.9866    10.1720    66.2394 H            3 THR404   0.0000
    48 HG23        41.3652     9.2812    67.5546 H            3 THR404   0.0000
@<TRIPOS>BOND
     1    8   18       1
     2    1    2       1
     3    2    5       1
     4    2    3       1
     5    5    6       1
     6    6    7       1
     7    6    8       1
     8    3    4       2
     9    8   17       1
    10    8   16       1
    11    2    9       1
    12    3   20      am
    13    5   10       1
    14    5   11       1
    15    6   12       1
    16    7   13       1
    17    7   14       1
    18    7   15       1
    19    1   19       1
    20   20   21       1
    21   21   24       1
    22   21   22       1
    23   24   25       1
    24   25   26       1
    25   26   27      ar
    26   26   28      ar
    27   22   23       2
    28   25   34       1
    29   20   29       1
    30   21   30       1
    31   22   35      am
    32   24   31       1
    33   24   32       1
    34   25   33       1
    35   35   36       1
    36   36   39       1
    37   36   37       1
    38   39   41       1
    39   39   40       1
    40   37   38       2
    41   41   48       1
    42   35   42       1
    43   36   43       1
    44   39   44       1
    45   40   45       1
    46   41   46       1
    47   41   47       1
@<TRIPOS>SUBSTRUCTURE
     1 LEU402      1 RESIDUE           4 B     LEU     0 **** LEU B 402
     2 GLU403     20 RESIDUE           4 B     GLU     0 **** GLU B 403
     3 THR404     35 RESIDUE           4 B     THR     0 **** THR B 404
