@<TRIPOS>MOLECULE
2zxg_S23_1_ligand
   55    56     1     0     0
SMALL
NO_CHARGES


@<TRIPOS>ATOM
     1 O2          71.8700    45.1120     6.4610 O.co2        1 S23901   0.0000
     2 P           72.1010    46.1770     7.3850 P.3          1 S23901   0.0000
     3 O1          73.4930    46.0300     7.7980 O.co2        1 S23901  -1.0000
     4 C1          71.1580    45.9650     8.6670 C.3          1 S23901   0.0000
     5 N1          71.4820    44.7800     9.4690 N.4          1 S23901   1.0000
     6 C2          71.1840    47.1000     9.7020 C.3          1 S23901   0.0000
     7 C3          71.8480    47.6150     6.7410 C.3          1 S23901   0.0000
     8 C4          72.8780    48.1790     5.7160 C.3          1 S23901   0.0000
     9 C6          72.5780    47.7440     4.2590 C.3          1 S23901   0.0000
    10 C7          73.6690    48.2390     3.3160 C.ar         1 S23901   0.0000
    11 C8          74.7960    47.4400     3.0910 C.ar         1 S23901   0.0000
    12 C10         75.8130    47.8810     2.2430 C.ar         1 S23901   0.0000
    13 C12         75.7010    49.1300     1.6350 C.ar         1 S23901   0.0000
    14 C11         74.5930    49.9470     1.8610 C.ar         1 S23901   0.0000
    15 C9          73.5650    49.4970     2.7000 C.ar         1 S23901   0.0000
    16 C5          73.0180    49.6960     5.7370 C.2          1 S23901   0.0000
    17 O3          72.0740    50.4400     5.5170 O.2          1 S23901   0.0000
    18 N2          74.2500    50.1710     5.9820 N.am         1 S23901   0.0000
    19 C13         74.6180    51.5710     5.8030 C.3          1 S23901   0.0000
    20 C14         75.9130    51.6740     5.0440 C.2          1 S23901   0.0000
    21 O4          76.0940    52.6740     4.3060 O.co2        1 S23901   0.0000
    22 O5          76.7570    50.7600     5.1650 O.co2        1 S23901  -1.0000
    23 C15         74.7830    52.2830     7.1470 C.3          1 S23901   0.0000
    24 C16         73.5060    52.2970     7.9640 C.ar         1 S23901   0.0000
    25 C17         72.5770    53.3280     7.7840 C.ar         1 S23901   0.0000
    26 C19         71.4000    53.3550     8.5390 C.ar         1 S23901   0.0000
    27 C21         71.1520    52.3490     9.4760 C.ar         1 S23901   0.0000
    28 C20         72.0710    51.3010     9.6360 C.ar         1 S23901   0.0000
    29 C18         73.2580    51.2820     8.8930 C.ar         1 S23901   0.0000
    30 H1          70.2171    45.8676     8.3426 H            1 S23901   0.0000
    31 H2          70.8529    44.7198    10.2440 H            1 S23901   0.0000
    32 H3          71.3934    43.9602     8.9033 H            1 S23901   0.0000
    33 H4          70.5685    46.8762    10.4577 H            1 S23901   0.0000
    34 H5          72.1143    47.2111    10.0515 H            1 S23901   0.0000
    35 H6          70.8861    47.9515     9.2705 H            1 S23901   0.0000
    36 H7          71.7985    48.2690     7.4959 H            1 S23901   0.0000
    37 H8          70.9638    47.5756     6.2756 H            1 S23901   0.0000
    38 H9          73.7707    47.7987     5.9577 H            1 S23901   0.0000
    39 H10         71.6994    48.1282     3.9756 H            1 S23901   0.0000
    40 H11         72.5346    46.7459     4.2163 H            1 S23901   0.0000
    41 H12         74.8728    46.5496     3.5397 H            1 S23901   0.0000
    42 H13         76.6138    47.3066     2.0734 H            1 S23901   0.0000
    43 H14         76.4281    49.4463     1.0257 H            1 S23901   0.0000
    44 H15         74.5330    50.8463     1.4278 H            1 S23901   0.0000
    45 H16         72.7605    50.0692     2.8596 H            1 S23901   0.0000
    46 H17         74.9500    49.5331     6.3032 H            1 S23901   0.0000
    47 H18         73.8995    52.0298     5.2802 H            1 S23901   0.0000
    48 H19         75.0635    53.2275     6.9761 H            1 S23901   0.0000
    49 H20         75.4933    51.8142     7.6721 H            1 S23901   0.0000
    50 H21         72.7553    54.0479     7.1132 H            1 S23901   0.0000
    51 H22         70.7376    54.0927     8.4084 H            1 S23901   0.0000
    52 H23         70.3210    52.3758    10.0317 H            1 S23901   0.0000
    53 H24         71.8775    50.5641    10.2837 H            1 S23901   0.0000
    54 H25         73.9235    50.5476     9.0260 H            1 S23901   0.0000
    55 H26         72.4206    44.8523     9.8064 H            1 S23901   0.0000
@<TRIPOS>BOND
     1    1    2      ar
     2    2    3      ar
     3    2    4       1
     4    2    7       1
     5    4    5       1
     6    4    6       1
     7    7    8       1
     8    8    9       1
     9    8   16       1
    10    9   10       1
    11   10   11      ar
    12   10   15      ar
    13   11   12      ar
    14   12   13      ar
    15   13   14      ar
    16   14   15      ar
    17   16   17       2
    18   16   18      am
    19   18   19       1
    20   19   20       1
    21   19   23       1
    22   20   21      ar
    23   20   22      ar
    24   23   24       1
    25   24   25      ar
    26   24   29      ar
    27   25   26      ar
    28   26   27      ar
    29   27   28      ar
    30   28   29      ar
    31   29   54       1
    32    4   30       1
    33    5   31       1
    34    5   32       1
    35    6   33       1
    36    6   34       1
    37    6   35       1
    38    7   36       1
    39    7   37       1
    40    8   38       1
    41    9   39       1
    42    9   40       1
    43   11   41       1
    44   12   42       1
    45   13   43       1
    46   14   44       1
    47   15   45       1
    48   18   46       1
    49   19   47       1
    50    5   55       1
    51   23   48       1
    52   23   49       1
    53   25   50       1
    54   26   51       1
    55   27   52       1
    56   28   53       1
@<TRIPOS>SUBSTRUCTURE
     1 S23901      1 GROUP             4 A     S23     0 **** S23 A 901
