@<TRIPOS>MOLECULE
3lnb_COA_1_ligand
   80    82     1     0     0
SMALL
NO_CHARGES


@<TRIPOS>ATOM
     1 N1A         12.4670    30.9260   -21.1580 N.ar         1 COA1001   0.0000
     2 C2A         13.6630    31.1770   -20.6560 C.ar         1 COA1001   0.0000
     3 N3A         13.9390    32.3230   -20.0570 N.ar         1 COA1001   0.0000
     4 C4A         13.0000    33.2710   -19.9410 C.ar         1 COA1001   0.0000
     5 C5A         11.7330    33.0460   -20.4600 C.ar         1 COA1001   0.0000
     6 C6A         11.4790    31.8290   -21.0810 C.ar         1 COA1001   0.0000
     7 N6A         10.2740    31.5600   -21.5770 N.pl3        1 COA1001   0.0000
     8 N7A         10.9980    34.1230   -20.2030 N.2          1 COA1001   0.0000
     9 C8A         11.7660    34.9900   -19.5470 C.2          1 COA1001   0.0000
    10 N9A         12.9840    34.4760   -19.3800 N.pl3        1 COA1001   0.0000
    11 C1B         14.0830    35.0950   -18.6020 C.3          1 COA1001   0.0000
    12 C2B         14.4920    36.4740   -19.1170 C.3          1 COA1001   0.0000
    13 O2B         15.3680    36.3360   -20.2400 O.3          1 COA1001   0.0000
    14 C3B         15.2530    37.0070   -17.9040 C.3          1 COA1001   0.0000
    15 O3B         16.6370    36.6540   -17.9790 O.3          1 COA1001   0.0000
    16 P3B         17.7310    37.6620   -17.3640 P.3          1 COA1001   0.0000
    17 O7A         17.3420    38.1680   -16.0290 O.co2        1 COA1001   0.0000
    18 O8A         19.1260    36.8600   -17.3390 O.co2        1 COA1001  -1.0000
    19 O9A         17.8820    38.8400   -18.4500 O.co2        1 COA1001  -1.0000
    20 C4B         14.5850    36.2980   -16.7230 C.3          1 COA1001   0.0000
    21 O4B         13.6070    35.4060   -17.2840 O.3          1 COA1001   0.0000
    22 C5B         13.8670    37.2920   -15.8110 C.3          1 COA1001   0.0000
    23 O5B         12.8330    37.9590   -16.5370 O.3          1 COA1001   0.0000
    24 P1A         12.0730    39.2070   -15.8670 P.3          1 COA1001   0.0000
    25 O1A         10.8460    39.5590   -16.8470 O.co2        1 COA1001   0.0000
    26 O2A         12.9820    40.3570   -15.6680 O.co2        1 COA1001  -1.0000
    27 O3A         11.4750    38.6680   -14.4730 O.3          1 COA1001   0.0000
    28 P2A         10.1250    37.8010   -14.3400 P.3          1 COA1001   0.0000
    29 O4A          8.9450    38.8710   -14.1140 O.co2        1 COA1001   0.0000
    30 O5A         10.2320    36.8490   -13.2110 O.co2        1 COA1001  -1.0000
    31 O6A          9.8320    37.0910   -15.7550 O.3          1 COA1001   0.0000
    32 CBP          9.0820    34.7690   -16.0690 C.3          1 COA1001   0.0000
    33 CCP         10.2570    35.7510   -16.0250 C.3          1 COA1001   0.0000
    34 CDP          8.4920    34.6120   -14.6660 C.3          1 COA1001   0.0000
    35 CEP          9.5850    33.4120   -16.5650 C.3          1 COA1001   0.0000
    36 CAP          8.0130    35.2890   -17.0330 C.3          1 COA1001   0.0000
    37 OAP          8.5930    35.4840   -18.3250 O.3          1 COA1001   0.0000
    38 C9P          6.8510    34.3020   -17.1660 C.2          1 COA1001   0.0000
    39 O9P          6.0410    34.1470   -16.2530 O.2          1 COA1001   0.0000
    40 N8P          6.8020    33.6610   -18.3320 N.am         1 COA1001   0.0000
    41 C7P          5.7540    32.6870   -18.6720 C.3          1 COA1001   0.0000
    42 C6P          6.3640    31.4790   -19.3880 C.3          1 COA1001   0.0000
    43 C5P          5.2870    30.6610   -20.1060 C.2          1 COA1001   0.0000
    44 O5P          4.7700    31.0810   -21.1390 O.2          1 COA1001   0.0000
    45 N4P          4.9800    29.4900   -19.5540 N.am         1 COA1001   0.0000
    46 C3P          3.9590    28.6080   -20.1370 C.3          1 COA1001   0.0000
    47 C2P          4.5210    27.8260   -21.3260 C.3          1 COA1001   0.0000
    48 S1P          5.7530    26.5520   -20.8670 S.3          1 COA1001   0.0000
    49 H2A         14.3782    30.4821   -20.7310 H            1 COA1001   0.0000
    50 H6A1         9.5441    32.2407   -21.5143 H            1 COA1001   0.0000
    51 H6A2        10.0983    30.6771   -22.0125 H            1 COA1001   0.0000
    52 H8A         11.4731    35.8912   -19.2276 H            1 COA1001   0.0000
    53 H1B         14.8737    34.4843   -18.5582 H            1 COA1001   0.0000
    54 H2B         13.6967    37.0399   -19.3341 H            1 COA1001   0.0000
    55 H7          15.8926    35.4893   -20.1514 H            1 COA1001   0.0000
    56 H3B         15.1452    37.9982   -17.8274 H            1 COA1001   0.0000
    57 H4B         15.2644    35.7811   -16.2022 H            1 COA1001   0.0000
    58 H5B1        14.5236    37.9667   -15.4739 H            1 COA1001   0.0000
    59 H5B2        13.4657    36.8019   -15.0372 H            1 COA1001   0.0000
    60 HCP1        10.8905    35.4632   -15.3068 H            1 COA1001   0.0000
    61 HCP2        10.7247    35.7334   -16.9087 H            1 COA1001   0.0000
    62 HDP1         7.7253    33.9708   -14.6967 H            1 COA1001   0.0000
    63 HDP2         9.1945    34.2622   -14.0462 H            1 COA1001   0.0000
    64 HDP3         8.1706    35.5004   -14.3382 H            1 COA1001   0.0000
    65 HEP1         8.8230    32.7652   -16.5964 H            1 COA1001   0.0000
    66 HEP2         9.9729    33.5148   -17.4809 H            1 COA1001   0.0000
    67 HEP3        10.2879    33.0690   -15.9419 H            1 COA1001   0.0000
    68 HAP          7.6638    36.1630   -16.6950 H            1 COA1001   0.0000
    69 H21          8.9493    36.4159   -18.3932 H            1 COA1001   0.0000
    70 H8P          7.5125    33.8512   -19.0095 H            1 COA1001   0.0000
    71 H7P1         5.0819    33.1213   -19.2718 H            1 COA1001   0.0000
    72 H7P2         5.3036    32.3807   -17.8334 H            1 COA1001   0.0000
    73 H6P1         6.8213    30.8974   -18.7152 H            1 COA1001   0.0000
    74 H6P2         7.0317    31.8004   -20.0595 H            1 COA1001   0.0000
    75 H4P          5.4554    29.2030   -18.7224 H            1 COA1001   0.0000
    76 H3P1         3.1865    29.1625   -20.4465 H            1 COA1001   0.0000
    77 H3P2         3.6478    27.9627   -19.4393 H            1 COA1001   0.0000
    78 H2P1         4.9571    28.4741   -21.9504 H            1 COA1001   0.0000
    79 H2P2         3.7606    27.3740   -21.7924 H            1 COA1001   0.0000
    80 H1P          6.2398    26.8408   -20.0426 H            1 COA1001   0.0000
@<TRIPOS>BOND
     1    1    2      ar
     2    1    6      ar
     3    2    3      ar
     4    3    4      ar
     5    4    5      ar
     6    4   10       1
     7    5    6      ar
     8    5    8       1
     9    6    7       1
    10    8    9       2
    11    9   10       1
    12   10   11       1
    13   11   12       1
    14   11   21       1
    15   12   13       1
    16   12   14       1
    17   14   15       1
    18   14   20       1
    19   15   16       1
    20   16   17      ar
    21   16   18      ar
    22   16   19      ar
    23   20   21       1
    24   20   22       1
    25   22   23       1
    26   23   24       1
    27   24   25      ar
    28   24   26      ar
    29   24   27       1
    30   27   28       1
    31   28   29      ar
    32   28   30      ar
    33   28   31       1
    34   31   33       1
    35   32   33       1
    36   32   34       1
    37   32   35       1
    38   32   36       1
    39   36   37       1
    40   36   38       1
    41   38   39       2
    42   38   40      am
    43   40   41       1
    44   41   42       1
    45   42   43       1
    46   43   44       2
    47   43   45      am
    48   45   46       1
    49   46   47       1
    50   47   48       1
    51    2   49       1
    52    7   50       1
    53    7   51       1
    54    9   52       1
    55   11   53       1
    56   12   54       1
    57   13   55       1
    58   14   56       1
    59   48   80       1
    60   47   79       1
    61   20   57       1
    62   22   58       1
    63   22   59       1
    64   47   78       1
    65   46   77       1
    66   33   60       1
    67   33   61       1
    68   34   62       1
    69   34   63       1
    70   34   64       1
    71   35   65       1
    72   35   66       1
    73   35   67       1
    74   36   68       1
    75   37   69       1
    76   40   70       1
    77   41   71       1
    78   41   72       1
    79   42   73       1
    80   42   74       1
    81   45   75       1
    82   46   76       1
@<TRIPOS>SUBSTRUCTURE
     1 COA1001     1 GROUP             4 A     COA     0 **** COA A1001
