@<TRIPOS>MOLECULE
3q33_ACO_2_ligand
   85    87     1     0     0
SMALL
NO_CHARGES


@<TRIPOS>ATOM
     1 N1A        -19.1530    -5.7680   -11.0830 N.ar         1 ACO501   0.0000
     2 C2A        -18.6530    -5.2250   -12.2040 C.ar         1 ACO501   0.0000
     3 N3A        -19.0830    -4.0720   -12.7110 N.ar         1 ACO501   0.0000
     4 C4A        -20.0590    -3.3740   -12.1200 C.ar         1 ACO501   0.0000
     5 C5A        -20.6620    -3.8950   -10.8870 C.ar         1 ACO501   0.0000
     6 C6A        -20.1420    -5.1770   -10.3750 C.ar         1 ACO501   0.0000
     7 N6A        -20.6130    -5.7640    -9.2500 N.pl3        1 ACO501   0.0000
     8 N7A        -21.5810    -3.0120   -10.5450 N.2          1 ACO501   0.0000
     9 C8A        -21.5660    -2.0000   -11.4820 C.2          1 ACO501   0.0000
    10 N9A        -20.6420    -2.2290   -12.4290 N.pl3        1 ACO501   0.0000
    11 C1B        -20.2400    -1.4340   -13.6290 C.3          1 ACO501   0.0000
    12 C2B        -21.2330    -0.3600   -14.1080 C.3          1 ACO501   0.0000
    13 O2B        -22.1660    -0.7990   -15.1070 O.3          1 ACO501   0.0000
    14 C3B        -20.3370     0.6220   -14.7990 C.3          1 ACO501   0.0000
    15 O3B        -19.9230     0.1940   -16.0990 O.3          1 ACO501   0.0000
    16 P3B        -20.3500     0.9910   -17.4100 P.3          1 ACO501   0.0000
    17 O7A        -21.8540     1.2180   -17.3160 O.co2        1 ACO501   0.0000
    18 O8A        -19.5830     2.2950   -17.3980 O.co2        1 ACO501  -1.0000
    19 O9A        -19.8820    -0.0080   -18.4460 O.co2        1 ACO501  -1.0000
    20 C4B        -19.1690     0.6250   -13.8320 C.3          1 ACO501   0.0000
    21 O4B        -19.0330    -0.7170   -13.3570 O.3          1 ACO501   0.0000
    22 C5B        -19.3650     1.6660   -12.7450 C.3          1 ACO501   0.0000
    23 O5B        -20.7460     1.8620   -12.4700 O.3          1 ACO501   0.0000
    24 P1A        -21.1550     2.6950   -11.1930 P.3          1 ACO501   0.0000
    25 O1A        -21.3160     4.1160   -11.7430 O.co2        1 ACO501   0.0000
    26 O2A        -22.2940     2.0060   -10.4570 O.co2        1 ACO501  -1.0000
    27 O3A        -19.8180     2.3920   -10.3600 O.3          1 ACO501   0.0000
    28 P2A        -19.4510     1.4130    -9.1610 P.3          1 ACO501   0.0000
    29 O4A        -18.3960     0.5120    -9.7340 O.co2        1 ACO501   0.0000
    30 O5A        -20.6830     0.8360    -8.5390 O.co2        1 ACO501  -1.0000
    31 O6A        -18.6720     2.1690    -7.9890 O.3          1 ACO501   0.0000
    32 CBP        -16.7160     3.3200    -7.0080 C.3          1 ACO501   0.0000
    33 CCP        -17.6010     3.0890    -8.2430 C.3          1 ACO501   0.0000
    34 CDP        -17.3630     4.3410    -6.0740 C.3          1 ACO501   0.0000
    35 CEP        -15.3460     3.8420    -7.4130 C.3          1 ACO501   0.0000
    36 CAP        -16.5480     1.9640    -6.3300 C.3          1 ACO501   0.0000
    37 OAP        -16.0730     1.1010    -7.3620 O.3          1 ACO501   0.0000
    38 C9P        -15.6700     1.8770    -5.0760 C.2          1 ACO501   0.0000
    39 O9P        -16.2600     1.6280    -4.0170 O.2          1 ACO501   0.0000
    40 N8P        -14.3230     2.0430    -5.0870 N.am         1 ACO501   0.0000
    41 C7P        -13.5590     1.9180    -3.8550 C.3          1 ACO501   0.0000
    42 C6P        -13.1660     3.1830    -3.1300 C.3          1 ACO501   0.0000
    43 C5P        -12.3470     4.1050    -4.0390 C.2          1 ACO501   0.0000
    44 O5P        -11.3060     3.7200    -4.5790 O.2          1 ACO501   0.0000
    45 N4P        -12.8620     5.3360    -4.1820 N.am         1 ACO501   0.0000
    46 C3P        -12.3350     6.4090    -4.9840 C.3          1 ACO501   0.0000
    47 C2P        -12.4030     7.6370    -4.0920 C.3          1 ACO501   0.0000
    48 S1P        -11.4590     9.0130    -4.6730 S.3          1 ACO501   0.0000
    49 C          -12.0990    10.5470    -4.7250 C.2          1 ACO501   0.0000
    50 O          -13.2090    10.7700    -4.2760 O.2          1 ACO501   0.0000
    51 CH3        -11.2310    11.5660    -5.3580 C.3          1 ACO501   0.0000
    52 H2A        -17.9212    -5.7108   -12.6819 H            1 ACO501   0.0000
    53 H6A1       -21.3444    -5.3269    -8.7265 H            1 ACO501   0.0000
    54 H6A2       -20.2296    -6.6348    -8.9423 H            1 ACO501   0.0000
    55 H8A        -22.1653    -1.1998   -11.4591 H            1 ACO501   0.0000
    56 H1B        -20.0690    -2.0663   -14.3846 H            1 ACO501   0.0000
    57 H2B        -21.7052     0.0645   -13.3355 H            1 ACO501   0.0000
    58 H7         -22.0523    -0.2486   -15.9341 H            1 ACO501   0.0000
    59 H3B        -20.7652     1.5247   -14.8418 H            1 ACO501   0.0000
    60 H4B        -18.3421     0.8600   -14.3429 H            1 ACO501   0.0000
    61 H5B1       -18.9654     2.5320   -13.0457 H            1 ACO501   0.0000
    62 H5B2       -18.9060     1.3587   -11.9114 H            1 ACO501   0.0000
    63 HCP1       -17.9915     3.9651    -8.5258 H            1 ACO501   0.0000
    64 HCP2       -17.0329     2.7237    -8.9805 H            1 ACO501   0.0000
    65 HDP1       -16.7769     4.4811    -5.2760 H            1 ACO501   0.0000
    66 HDP2       -17.4801     5.2082    -6.5580 H            1 ACO501   0.0000
    67 HDP3       -18.2556     4.0021    -5.7766 H            1 ACO501   0.0000
    68 HEP1       -14.7885     3.9847    -6.5952 H            1 ACO501   0.0000
    69 HEP2       -14.8984     3.1757    -8.0095 H            1 ACO501   0.0000
    70 HEP3       -15.4504     4.7088    -7.9007 H            1 ACO501   0.0000
    71 HAP        -17.4609     1.6456    -6.0748 H            1 ACO501   0.0000
    72 H21        -16.3845     0.1673    -7.1854 H            1 ACO501   0.0000
    73 H8P        -13.8539     2.2520    -5.9450 H            1 ACO501   0.0000
    74 H7P1       -12.7155     1.4288    -4.0771 H            1 ACO501   0.0000
    75 H7P2       -14.1051     1.3701    -3.2213 H            1 ACO501   0.0000
    76 H6P1       -12.6184     2.9437    -2.3282 H            1 ACO501   0.0000
    77 H6P2       -13.9932     3.6628    -2.8376 H            1 ACO501   0.0000
    78 H4P        -13.7031     5.5288    -3.6766 H            1 ACO501   0.0000
    79 H3P1       -12.8908     6.5398    -5.8050 H            1 ACO501   0.0000
    80 H3P2       -11.3896     6.2186    -5.2483 H            1 ACO501   0.0000
    81 H2P1       -12.0634     7.3848    -3.1859 H            1 ACO501   0.0000
    82 H2P2       -13.3594     7.9207    -4.0224 H            1 ACO501   0.0000
    83 HH31       -11.6936    12.4525    -5.3451 H            1 ACO501   0.0000
    84 HH32       -10.3707    11.6316    -4.8524 H            1 ACO501   0.0000
    85 HH33       -11.0425    11.3021    -6.3040 H            1 ACO501   0.0000
@<TRIPOS>BOND
     1    1    2      ar
     2    1    6      ar
     3    2    3      ar
     4    3    4      ar
     5    4    5      ar
     6    4   10       1
     7    5    6      ar
     8    5    8       1
     9    6    7       1
    10    8    9       2
    11    9   10       1
    12   10   11       1
    13   11   12       1
    14   11   21       1
    15   12   13       1
    16   12   14       1
    17   14   15       1
    18   14   20       1
    19   15   16       1
    20   16   17      ar
    21   16   18      ar
    22   16   19      ar
    23   20   21       1
    24   20   22       1
    25   22   23       1
    26   23   24       1
    27   24   25      ar
    28   24   26      ar
    29   24   27       1
    30   27   28       1
    31   28   29      ar
    32   28   30      ar
    33   28   31       1
    34   31   33       1
    35   32   33       1
    36   32   34       1
    37   32   35       1
    38   32   36       1
    39   36   37       1
    40   36   38       1
    41   38   39       2
    42   38   40      am
    43   40   41       1
    44   41   42       1
    45   42   43       1
    46   43   44       2
    47   43   45      am
    48   45   46       1
    49   46   47       1
    50   47   48       1
    51   48   49       1
    52   49   50       2
    53   49   51       1
    54    2   52       1
    55    7   53       1
    56    7   54       1
    57    9   55       1
    58   11   56       1
    59   12   57       1
    60   13   58       1
    61   14   59       1
    62   51   85       1
    63   51   84       1
    64   20   60       1
    65   22   61       1
    66   22   62       1
    67   51   83       1
    68   47   82       1
    69   33   63       1
    70   33   64       1
    71   34   65       1
    72   34   66       1
    73   34   67       1
    74   35   68       1
    75   35   69       1
    76   35   70       1
    77   36   71       1
    78   37   72       1
    79   40   73       1
    80   41   74       1
    81   41   75       1
    82   42   76       1
    83   42   77       1
    84   45   78       1
    85   46   79       1
    86   46   80       1
    87   47   81       1
@<TRIPOS>SUBSTRUCTURE
     1 ACO501      1 GROUP             4 A     ACO     0 **** ACO A 501
