@<TRIPOS>MOLECULE
5dp2_NAP_1_ligand
   73    77     1     0     0
SMALL
NO_CHARGES


@<TRIPOS>ATOM
     1 PA           2.8420    23.8830   -22.3150 P.3          1 NAP401   0.0000
     2 O1A          3.9330    23.3640   -23.1870 O.co2        1 NAP401   0.0000
     3 O2A          1.5730    23.1200   -22.2060 O.co2        1 NAP401  -1.0000
     4 O5B          2.5610    25.3890   -22.7700 O.3          1 NAP401   0.0000
     5 C5B          1.3630    26.0720   -22.3770 C.3          1 NAP401   0.0000
     6 C4B          0.1450    25.6190   -23.1530 C.3          1 NAP401   0.0000
     7 O4B         -0.9270    26.4730   -22.8290 O.3          1 NAP401   0.0000
     8 C3B          0.3200    25.6390   -24.6430 C.3          1 NAP401   0.0000
     9 O3B          0.2230    24.2950   -25.1200 O.3          1 NAP401   0.0000
    10 C2B         -0.8250    26.5200   -25.1780 C.3          1 NAP401   0.0000
    11 O2B         -1.5850    26.0300   -26.2460 O.3          1 NAP401   0.0000
    12 C1B         -1.7680    26.6050   -23.9940 C.3          1 NAP401   0.0000
    13 N9A         -2.4440    27.8870   -23.8480 N.pl3        1 NAP401   0.0000
    14 C8A         -1.9610    29.0100   -23.2120 C.2          1 NAP401   0.0000
    15 N7A         -2.8670    30.0140   -23.2670 N.2          1 NAP401   0.0000
    16 C5A         -3.9290    29.5280   -23.9250 C.ar         1 NAP401   0.0000
    17 C6A         -5.1990    30.0520   -24.3100 C.ar         1 NAP401   0.0000
    18 N6A         -5.5270    31.3210   -23.9940 N.pl3        1 NAP401   0.0000
    19 N1A         -6.0360    29.2620   -24.9700 N.ar         1 NAP401   0.0000
    20 C2A         -5.6770    28.0080   -25.2660 C.ar         1 NAP401   0.0000
    21 N3A         -4.5240    27.4070   -24.9590 N.ar         1 NAP401   0.0000
    22 C4A         -3.6580    28.1710   -24.3120 C.ar         1 NAP401   0.0000
    23 O3           3.4080    24.1230   -20.8270 O.3          1 NAP401   0.0000
    24 PN           3.6920    23.0630   -19.6610 P.3          1 NAP401   0.0000
    25 O1N          4.9360    23.4850   -18.9810 O.co2        1 NAP401   0.0000
    26 O2N          3.5930    21.6600   -20.1850 O.co2        1 NAP401  -1.0000
    27 O5D          2.5060    23.3670   -18.6850 O.3          1 NAP401   0.0000
    28 C5D          1.1570    23.0640   -19.1100 C.3          1 NAP401   0.0000
    29 C4D          0.1460    23.7910   -18.1880 C.3          1 NAP401   0.0000
    30 O4D          0.0190    23.0350   -17.0120 O.3          1 NAP401   0.0000
    31 C3D          0.5830    25.1880   -17.7310 C.3          1 NAP401   0.0000
    32 O3D         -0.6000    25.9590   -17.4820 O.3          1 NAP401   0.0000
    33 C2D          1.3530    24.9060   -16.4660 C.3          1 NAP401   0.0000
    34 O2D          1.3500    26.0510   -15.6080 O.3          1 NAP401   0.0000
    35 C1D          0.5910    23.7390   -15.8960 C.3          1 NAP401   0.0000
    36 N1N          1.2960    22.6870   -15.1320 N.ar         1 NAP401   1.0000
    37 C2N          0.8650    22.3620   -13.8920 C.ar         1 NAP401   0.0000
    38 C3N          1.4750    21.3710   -13.1280 C.ar         1 NAP401   0.0000
    39 C7N          0.9570    21.0510   -11.7680 C.2          1 NAP401   0.0000
    40 O7N          1.6680    20.3290   -11.1030 O.2          1 NAP401   0.0000
    41 N7N         -0.2420    21.5610   -11.3780 N.am         1 NAP401   0.0000
    42 C4N          2.5720    20.6860   -13.6610 C.ar         1 NAP401   0.0000
    43 C5N          2.9950    21.0350   -14.9370 C.ar         1 NAP401   0.0000
    44 C6N          2.3450    22.0380   -15.6670 C.ar         1 NAP401   0.0000
    45 P2B         -1.0900    25.9960   -27.7660 P.3          1 NAP401   0.0000
    46 O1X          0.0310    24.9670   -27.8340 O.co2        1 NAP401   0.0000
    47 O2X         -2.3300    25.5760   -28.5030 O.co2        1 NAP401  -1.0000
    48 O3X         -0.6070    27.3860   -28.1030 O.co2        1 NAP401  -1.0000
    49 H5B1         1.4907    27.0523   -22.5274 H            1 NAP401   0.0000
    50 H5B2         1.2032    25.9020   -21.4046 H            1 NAP401   0.0000
    51 H4B         -0.0886    24.6889   -22.8696 H            1 NAP401   0.0000
    52 H3B          1.2066    26.0328   -24.8855 H            1 NAP401   0.0000
    53 H5           1.0747    24.0419   -25.5789 H            1 NAP401   0.0000
    54 H2B         -0.4766    27.4307   -25.3998 H            1 NAP401   0.0000
    55 H1B         -2.4358    25.8614   -24.0270 H            1 NAP401   0.0000
    56 H8A         -1.0657    29.0742   -22.7712 H            1 NAP401   0.0000
    57 H6A1        -6.4168    31.6893   -24.2633 H            1 NAP401   0.0000
    58 H6A2        -4.8804    31.8939   -23.4903 H            1 NAP401   0.0000
    59 H2A         -6.3439    27.4610   -25.7720 H            1 NAP401   0.0000
    60 H5D1         1.0053    22.0770   -19.0574 H            1 NAP401   0.0000
    61 H5D2         1.0282    23.3713   -20.0529 H            1 NAP401   0.0000
    62 H4D         -0.7413    23.8506   -18.6452 H            1 NAP401   0.0000
    63 H3D          1.1631    25.6275   -18.4168 H            1 NAP401   0.0000
    64 H16         -1.1396    26.0220   -18.3215 H            1 NAP401   0.0000
    65 H2D          2.2912    24.6363   -16.6828 H            1 NAP401   0.0000
    66 H18          1.4008    25.7533   -14.6547 H            1 NAP401   0.0000
    67 H1D         -0.1540    24.0939   -15.3311 H            1 NAP401   0.0000
    68 H2N          0.0805    22.8508   -13.5105 H            1 NAP401   0.0000
    69 H7N1        -0.6012    21.3541   -10.4680 H            1 NAP401   0.0000
    70 H7N2        -0.7644    22.1429   -12.0013 H            1 NAP401   0.0000
    71 H4N          3.0361    19.9691   -13.1408 H            1 NAP401   0.0000
    72 H5N          3.7775    20.5618   -15.3416 H            1 NAP401   0.0000
    73 H6N          2.6612    22.2716   -16.5865 H            1 NAP401   0.0000
@<TRIPOS>BOND
     1    1    2      ar
     2    1    3      ar
     3    1    4       1
     4    1   23       1
     5    4    5       1
     6    5    6       1
     7    6    7       1
     8    6    8       1
     9    7   12       1
    10    8    9       1
    11    8   10       1
    12   10   11       1
    13   10   12       1
    14   11   45       1
    15   12   13       1
    16   13   14       1
    17   13   22       1
    18   14   15       2
    19   15   16       1
    20   16   17      ar
    21   16   22      ar
    22   17   18       1
    23   17   19      ar
    24   19   20      ar
    25   20   21      ar
    26   21   22      ar
    27   23   24       1
    28   24   25      ar
    29   24   26      ar
    30   24   27       1
    31   27   28       1
    32   28   29       1
    33   29   30       1
    34   29   31       1
    35   30   35       1
    36   31   32       1
    37   31   33       1
    38   33   34       1
    39   33   35       1
    40   35   36       1
    41   36   37      ar
    42   36   44      ar
    43   37   38      ar
    44   38   39       1
    45   38   42      ar
    46   39   40       2
    47   39   41      am
    48   42   43      ar
    49   43   44      ar
    50   45   46      ar
    51   45   47      ar
    52   45   48      ar
    53   43   72       1
    54    5   49       1
    55    5   50       1
    56    6   51       1
    57    8   52       1
    58    9   53       1
    59   10   54       1
    60   12   55       1
    61   14   56       1
    62   18   57       1
    63   18   58       1
    64   20   59       1
    65   44   73       1
    66   28   60       1
    67   28   61       1
    68   29   62       1
    69   31   63       1
    70   32   64       1
    71   33   65       1
    72   34   66       1
    73   35   67       1
    74   37   68       1
    75   41   69       1
    76   41   70       1
    77   42   71       1
@<TRIPOS>SUBSTRUCTURE
     1 NAP401      1 GROUP             4 A     NAP     0 **** NAP A 401
