@<TRIPOS>MOLECULE
4qxa_GTP_1_ligand
   44    46     1     0     0
SMALL
NO_CHARGES


@<TRIPOS>ATOM
     1 PG          -8.0700    17.4190    -5.0010 P.3          1 GTP301   0.0000
     2 O1G         -7.9320    17.0130    -6.4090 O.co2        1 GTP301   0.0000
     3 O2G         -6.7060    17.7680    -4.4340 O.co2        1 GTP301  -1.0000
     4 O3G         -8.6430    16.1960    -4.2950 O.co2        1 GTP301  -1.0000
     5 O3B         -9.1150    18.6220    -4.8360 O.3          1 GTP301   0.0000
     6 PB          -9.0330    20.1720    -5.3020 P.3          1 GTP301   0.0000
     7 O1B         -8.2500    21.0320    -4.3610 O.co2        1 GTP301   0.0000
     8 O2B         -8.6090    20.4600    -6.6830 O.co2        1 GTP301  -1.0000
     9 O3A        -10.5970    20.5880    -5.2540 O.3          1 GTP301   0.0000
    10 PA         -11.4250    20.7960    -6.6290 P.3          1 GTP301   0.0000
    11 O1A        -10.8910    21.9830    -7.3990 O.co2        1 GTP301   0.0000
    12 O2A        -11.4710    19.5460    -7.4760 O.co2        1 GTP301  -1.0000
    13 O5'        -12.8900    21.1450    -6.0890 O.3          1 GTP301   0.0000
    14 C5'        -13.4550    20.5160    -4.9610 C.3          1 GTP301   0.0000
    15 C4'        -14.9790    20.6430    -4.9800 C.3          1 GTP301   0.0000
    16 O4'        -15.2550    21.9270    -4.4560 O.3          1 GTP301   0.0000
    17 C3'        -15.5890    20.6190    -6.3720 C.3          1 GTP301   0.0000
    18 O3'        -16.9160    20.1590    -6.2360 O.3          1 GTP301   0.0000
    19 C2'        -15.6090    22.0860    -6.7730 C.3          1 GTP301   0.0000
    20 O2'        -16.6150    22.3980    -7.7020 O.3          1 GTP301   0.0000
    21 C1'        -15.8630    22.7560    -5.4280 C.3          1 GTP301   0.0000
    22 N9         -15.2800    24.1070    -5.3760 N.pl3        1 GTP301   0.0000
    23 C8         -14.0120    24.4990    -5.7350 C.2          1 GTP301   0.0000
    24 N7         -13.9020    25.8280    -5.5180 N.2          1 GTP301   0.0000
    25 C5         -15.0770    26.2770    -5.0070 C.2          1 GTP301   0.0000
    26 C6         -15.5160    27.5390    -4.6090 C.2          1 GTP301   0.0000
    27 O6         -14.7620    28.5080    -4.6950 O.2          1 GTP301   0.0000
    28 N1         -16.8100    27.6920    -4.1300 N.pl3        1 GTP301   0.0000
    29 C2         -17.6550    26.5950    -4.0350 C.2          1 GTP301   0.0000
    30 N2         -18.9060    26.7320    -3.5790 N.pl3        1 GTP301   0.0000
    31 N3         -17.2120    25.3480    -4.4440 N.2          1 GTP301   0.0000
    32 C4         -15.9530    25.2020    -4.9250 C.2          1 GTP301   0.0000
    33 H5'1       -13.0997    20.9475    -4.1318 H            1 GTP301   0.0000
    34 H5'2       -13.2059    19.5475    -4.9657 H            1 GTP301   0.0000
    35 H4'        -15.3939    19.9368    -4.4063 H            1 GTP301   0.0000
    36 H3'        -15.0578    20.0598    -7.0085 H            1 GTP301   0.0000
    37 H5         -17.3523    20.1294    -7.1353 H            1 GTP301   0.0000
    38 H2'        -14.7150    22.3576    -7.1295 H            1 GTP301   0.0000
    39 H7         -16.2582    22.2869    -8.6296 H            1 GTP301   0.0000
    40 H1'        -16.8471    22.8075    -5.2583 H            1 GTP301   0.0000
    41 H9         -13.2944    23.9028    -6.0949 H            1 GTP301   0.0000
    42 H10        -17.1346    28.5962    -3.8523 H            1 GTP301   0.0000
    43 H11        -19.5052    25.9339    -3.5153 H            1 GTP301   0.0000
    44 H12        -19.2414    27.6324    -3.3021 H            1 GTP301   0.0000
@<TRIPOS>BOND
     1    1    2      ar
     2    1    3      ar
     3    1    4      ar
     4    1    5       1
     5    5    6       1
     6    6    7      ar
     7    6    8      ar
     8    6    9       1
     9    9   10       1
    10   10   11      ar
    11   10   12      ar
    12   10   13       1
    13   13   14       1
    14   14   15       1
    15   15   16       1
    16   15   17       1
    17   16   21       1
    18   17   18       1
    19   17   19       1
    20   19   20       1
    21   19   21       1
    22   21   22       1
    23   22   23       1
    24   22   32       1
    25   23   24       2
    26   24   25       1
    27   25   26       1
    28   25   32       2
    29   26   27       2
    30   26   28       1
    31   28   29       1
    32   29   30       1
    33   29   31       2
    34   31   32       1
    35   30   44       1
    36   30   43       1
    37   28   42       1
    38   23   41       1
    39   14   33       1
    40   14   34       1
    41   15   35       1
    42   17   36       1
    43   18   37       1
    44   19   38       1
    45   20   39       1
    46   21   40       1
@<TRIPOS>SUBSTRUCTURE
     1 GTP301      1 GROUP             4 A     GTP     0 **** GTP A 301
