@<TRIPOS>MOLECULE
3ruq_ADP_3_ligand
   39    41     1     0     0
SMALL
NO_CHARGES


@<TRIPOS>ATOM
     1 PB         -34.4420    20.3900    26.3040 P.3          1 ADP545   0.0000
     2 O1B        -35.5740    20.5300    25.2980 O.co2        1 ADP545   0.0000
     3 O2B        -34.9250    19.7860    27.6030 O.co2        1 ADP545  -1.0000
     4 O3B        -33.5550    21.6110    26.5120 O.co2        1 ADP545  -1.0000
     5 PA         -32.1420    19.3870    24.7670 P.3          1 ADP545   0.0000
     6 O1A        -32.1210    18.3000    23.7210 O.co2        1 ADP545   0.0000
     7 O2A        -31.9700    20.8220    24.3380 O.co2        1 ADP545  -1.0000
     8 O3A        -33.4760    19.2360    25.6830 O.3          1 ADP545   0.0000
     9 O5'        -31.0150    18.9760    25.8300 O.3          1 ADP545   0.0000
    10 C5'        -30.8970    19.6330    27.0890 C.3          1 ADP545   0.0000
    11 C4'        -30.0120    18.7310    27.9410 C.3          1 ADP545   0.0000
    12 O4'        -28.8250    18.4000    27.2140 O.3          1 ADP545   0.0000
    13 C3'        -29.5830    19.4270    29.2200 C.3          1 ADP545   0.0000
    14 O3'        -29.6630    18.4910    30.3020 O.3          1 ADP545   0.0000
    15 C2'        -28.1340    19.7960    29.0040 C.3          1 ADP545   0.0000
    16 O2'        -27.4340    19.6880    30.2450 O.3          1 ADP545   0.0000
    17 C1'        -27.6960    18.7040    28.0440 C.3          1 ADP545   0.0000
    18 N9         -26.4720    19.1120    27.3130 N.pl3        1 ADP545   0.0000
    19 C8         -26.3020    20.1780    26.5080 C.2          1 ADP545   0.0000
    20 N7         -25.0250    20.2280    26.0320 N.2          1 ADP545   0.0000
    21 C5         -24.3630    19.1760    26.5480 C.ar         1 ADP545   0.0000
    22 C6         -22.9930    18.6250    26.4640 C.ar         1 ADP545   0.0000
    23 N6         -22.0610    19.2410    25.7140 N.pl3        1 ADP545   0.0000
    24 N1         -22.7040    17.5000    27.1580 N.ar         1 ADP545   0.0000
    25 C2         -23.6400    16.8870    27.9110 C.ar         1 ADP545   0.0000
    26 N3         -24.9100    17.3290    28.0370 N.ar         1 ADP545   0.0000
    27 C4         -25.3190    18.4500    27.3940 C.ar         1 ADP545   0.0000
    28 H5'1       -31.7966    19.7401    27.5125 H            1 ADP545   0.0000
    29 H5'2       -30.4729    20.5315    26.9754 H            1 ADP545   0.0000
    30 H4'        -30.5091    17.8934    28.1675 H            1 ADP545   0.0000
    31 H3'        -30.1417    20.2370    29.3980 H            1 ADP545   0.0000
    32 H5         -30.5741    18.5325    30.7120 H            1 ADP545   0.0000
    33 H2'        -28.0381    20.7061    28.6009 H            1 ADP545   0.0000
    34 H7         -27.8432    20.3089    30.9136 H            1 ADP545   0.0000
    35 H1'        -27.4784    17.8890    28.5810 H            1 ADP545   0.0000
    36 H9         -27.0158    20.8432    26.2888 H            1 ADP545   0.0000
    37 H10        -21.1355    18.8661    25.6591 H            1 ADP545   0.0000
    38 H11        -22.2938    20.0736    25.2115 H            1 ADP545   0.0000
    39 H12        -23.3787    16.0574    28.4045 H            1 ADP545   0.0000
@<TRIPOS>BOND
     1    1    2      ar
     2    1    3      ar
     3    1    4      ar
     4    1    8       1
     5    5    6      ar
     6    5    7      ar
     7    5    8       1
     8    5    9       1
     9    9   10       1
    10   10   11       1
    11   11   12       1
    12   11   13       1
    13   12   17       1
    14   13   14       1
    15   13   15       1
    16   15   16       1
    17   15   17       1
    18   17   18       1
    19   18   19       1
    20   18   27       1
    21   19   20       2
    22   20   21       1
    23   21   22      ar
    24   21   27      ar
    25   22   23       1
    26   22   24      ar
    27   24   25      ar
    28   25   26      ar
    29   26   27      ar
    30   25   39       1
    31   23   38       1
    32   23   37       1
    33   10   28       1
    34   10   29       1
    35   11   30       1
    36   13   31       1
    37   14   32       1
    38   15   33       1
    39   16   34       1
    40   17   35       1
    41   19   36       1
@<TRIPOS>SUBSTRUCTURE
     1 ADP545      1 GROUP             4 C     ADP     0 **** ADP C 545
