@<TRIPOS>MOLECULE
3vpc_ADP_4_ligand
   39    41     1     0     0
SMALL
NO_CHARGES


@<TRIPOS>ATOM
     1 PB          -7.7310    17.2470    34.5600 P.3          1 ADP500   0.0000
     2 O1B         -7.1280    16.8680    35.8890 O.co2        1 ADP500   0.0000
     3 O2B         -8.2390    18.6770    34.4900 O.co2        1 ADP500  -1.0000
     4 O3B         -6.8210    16.8860    33.3970 O.co2        1 ADP500  -1.0000
     5 PA         -10.3970    16.4850    35.2410 P.3          1 ADP500   0.0000
     6 O1A        -10.7270    15.1590    35.8770 O.co2        1 ADP500   0.0000
     7 O2A        -10.2350    17.6890    36.1640 O.co2        1 ADP500  -1.0000
     8 O3A         -9.0670    16.3520    34.3550 O.3          1 ADP500   0.0000
     9 O5'        -11.5880    16.8510    34.2340 O.3          1 ADP500   0.0000
    10 C5'        -11.5710    17.9960    33.3910 C.3          1 ADP500   0.0000
    11 C4'        -12.9900    18.4910    33.1990 C.3          1 ADP500   0.0000
    12 O4'        -13.8580    17.4400    32.7810 O.3          1 ADP500   0.0000
    13 C3'        -13.5390    19.0600    34.5000 C.3          1 ADP500   0.0000
    14 O3'        -13.7860    20.4310    34.2540 O.3          1 ADP500   0.0000
    15 C2'        -14.8700    18.3930    34.7280 C.3          1 ADP500   0.0000
    16 O2'        -15.8730    19.4000    34.5070 O.3          1 ADP500   0.0000
    17 C1'        -15.0130    17.3780    33.6150 C.3          1 ADP500   0.0000
    18 N9         -15.1630    16.0110    34.1650 N.pl3        1 ADP500   0.0000
    19 C8         -14.1730    15.1850    34.5390 C.2          1 ADP500   0.0000
    20 N7         -14.6680    14.0000    34.9850 N.2          1 ADP500   0.0000
    21 C5         -16.0070    14.0900    34.8820 C.ar         1 ADP500   0.0000
    22 C6         -17.1490    13.2060    35.1790 C.ar         1 ADP500   0.0000
    23 N6         -16.9330    11.9920    35.7100 N.pl3        1 ADP500   0.0000
    24 N1         -18.3950    13.6760    34.9320 N.ar         1 ADP500   0.0000
    25 C2         -18.6160    14.8980    34.4160 C.ar         1 ADP500   0.0000
    26 N3         -17.6390    15.7790    34.1330 N.ar         1 ADP500   0.0000
    27 C4         -16.3320    15.4220    34.3540 C.ar         1 ADP500   0.0000
    28 H5'1       -11.1781    17.7531    32.5041 H            1 ADP500   0.0000
    29 H5'2       -11.0198    18.7152    33.8140 H            1 ADP500   0.0000
    30 H4'        -12.9920    19.2098    32.5037 H            1 ADP500   0.0000
    31 H3'        -12.9117    18.9215    35.2664 H            1 ADP500   0.0000
    32 H5         -14.5477    20.7399    34.8235 H            1 ADP500   0.0000
    33 H2'        -14.9389    17.9777    35.6351 H            1 ADP500   0.0000
    34 H7         -16.7084    18.9691    34.1658 H            1 ADP500   0.0000
    35 H1'        -15.8215    17.6017    33.0707 H            1 ADP500   0.0000
    36 H9         -13.2000    15.4115    34.4953 H            1 ADP500   0.0000
    37 H10        -17.7055    11.3902    35.9125 H            1 ADP500   0.0000
    38 H11        -15.9996    11.6896    35.9030 H            1 ADP500   0.0000
    39 H12        -19.5612    15.1676    34.2319 H            1 ADP500   0.0000
@<TRIPOS>BOND
     1    1    2      ar
     2    1    3      ar
     3    1    4      ar
     4    1    8       1
     5    5    6      ar
     6    5    7      ar
     7    5    8       1
     8    5    9       1
     9    9   10       1
    10   10   11       1
    11   11   12       1
    12   11   13       1
    13   12   17       1
    14   13   14       1
    15   13   15       1
    16   15   16       1
    17   15   17       1
    18   17   18       1
    19   18   19       1
    20   18   27       1
    21   19   20       2
    22   20   21       1
    23   21   22      ar
    24   21   27      ar
    25   22   23       1
    26   22   24      ar
    27   24   25      ar
    28   25   26      ar
    29   26   27      ar
    30   25   39       1
    31   23   38       1
    32   23   37       1
    33   10   28       1
    34   10   29       1
    35   11   30       1
    36   13   31       1
    37   14   32       1
    38   15   33       1
    39   16   34       1
    40   17   35       1
    41   19   36       1
@<TRIPOS>SUBSTRUCTURE
     1 ADP500      1 GROUP             4 D     ADP     0 **** ADP D 500
