@<TRIPOS>MOLECULE
3hf3_FMN_1_ligand
   50    52     1     0     0
SMALL
NO_CHARGES


@<TRIPOS>ATOM
     1 N1          42.2500   -32.7480    17.1040 N.2          1 FMN1001   0.0000
     2 C2          41.9530   -31.7070    17.9430 C.2          1 FMN1001   0.0000
     3 O2          41.6140   -31.9950    19.1000 O.2          1 FMN1001   0.0000
     4 N3          42.1340   -30.3960    17.5090 N.pl3        1 FMN1001   0.0000
     5 C4          42.5090   -30.1680    16.1800 C.2          1 FMN1001   0.0000
     6 O4          42.4410   -29.0280    15.6690 O.2          1 FMN1001   0.0000
     7 C4A         42.8540   -31.2480    15.3550 C.2          1 FMN1001   0.0000
     8 N5          43.2720   -31.0240    14.0510 N.2          1 FMN1001   0.0000
     9 C5A         43.3340   -32.0700    13.1500 C.ar         1 FMN1001   0.0000
    10 C6          43.7340   -31.8480    11.8280 C.ar         1 FMN1001   0.0000
    11 C7          43.8390   -32.9420    10.9580 C.ar         1 FMN1001   0.0000
    12 C7M         44.1540   -32.7450     9.5050 C.3          1 FMN1001   0.0000
    13 C8          43.6470   -34.2360    11.4520 C.ar         1 FMN1001   0.0000
    14 C8M         43.7580   -35.4390    10.5560 C.3          1 FMN1001   0.0000
    15 C9          43.3200   -34.4370    12.7830 C.ar         1 FMN1001   0.0000
    16 C9A         43.1730   -33.3650    13.6290 C.ar         1 FMN1001   0.0000
    17 N10         42.8060   -33.6050    14.9430 N.pl3        1 FMN1001   0.0000
    18 C10         42.6590   -32.5410    15.8070 C.2          1 FMN1001   0.0000
    19 C1'         42.4100   -34.9920    15.3400 C.3          1 FMN1001   0.0000
    20 C2'         40.9800   -35.2840    14.8890 C.3          1 FMN1001   0.0000
    21 O2'         40.1290   -34.3410    15.4930 O.3          1 FMN1001   0.0000
    22 C3'         40.5020   -36.6460    15.3790 C.3          1 FMN1001   0.0000
    23 O3'         40.4510   -36.6050    16.7940 O.3          1 FMN1001   0.0000
    24 C4'         41.4630   -37.7460    14.9490 C.3          1 FMN1001   0.0000
    25 O4'         41.8050   -37.5160    13.5950 O.3          1 FMN1001   0.0000
    26 C5'         40.8480   -39.1310    15.1530 C.3          1 FMN1001   0.0000
    27 O5'         39.5990   -39.1990    14.5000 O.3          1 FMN1001   0.0000
    28 P           39.4350   -39.7800    12.9860 P.3          1 FMN1001   0.0000
    29 O1P         40.0130   -41.1700    12.8180 O.co2        1 FMN1001   0.0000
    30 O2P         40.0440   -38.8270    12.0200 O.co2        1 FMN1001  -1.0000
    31 O3P         37.9160   -39.8920    12.8490 O.co2        1 FMN1001  -1.0000
    32 H1          41.9982   -29.6297    18.1370 H            1 FMN1001   0.0000
    33 H2          43.9418   -30.9234    11.5087 H            1 FMN1001   0.0000
    34 H7M1        44.1875   -33.6337     9.0477 H            1 FMN1001   0.0000
    35 H7M2        43.4446   -32.1799     9.0838 H            1 FMN1001   0.0000
    36 H7M3        45.0399   -32.2900     9.4147 H            1 FMN1001   0.0000
    37 H8M1        43.5888   -36.2682    11.0888 H            1 FMN1001   0.0000
    38 H8M2        43.0827   -35.3711     9.8216 H            1 FMN1001   0.0000
    39 H8M3        44.6763   -35.4776    10.1620 H            1 FMN1001   0.0000
    40 H9          43.1905   -35.3662    13.1292 H            1 FMN1001   0.0000
    41 H1'1        42.4667   -35.0795    16.3346 H            1 FMN1001   0.0000
    42 H1'2        43.0315   -35.6480    14.9117 H            1 FMN1001   0.0000
    43 H2'         40.9106   -35.2282    13.8930 H            1 FMN1001   0.0000
    44 H13         40.3978   -33.4202    15.2103 H            1 FMN1001   0.0000
    45 H3'         39.5900   -36.8340    15.0144 H            1 FMN1001   0.0000
    46 H15         41.0628   -37.3010    17.1699 H            1 FMN1001   0.0000
    47 H4'         42.2925   -37.6801    15.5035 H            1 FMN1001   0.0000
    48 H17         41.1558   -37.9921    13.0017 H            1 FMN1001   0.0000
    49 H5'1        40.7211   -39.2974    16.1309 H            1 FMN1001   0.0000
    50 H5'2        41.4595   -39.8252    14.7734 H            1 FMN1001   0.0000
@<TRIPOS>BOND
     1    1    2       1
     2    1   18       2
     3    2    3       2
     4    2    4       1
     5    4    5       1
     6    5    6       2
     7    5    7       1
     8    7    8       2
     9    7   18       1
    10    8    9       1
    11    9   10      ar
    12    9   16      ar
    13   10   11      ar
    14   11   12       1
    15   11   13      ar
    16   13   14       1
    17   13   15      ar
    18   15   16      ar
    19   16   17       1
    20   17   18       1
    21   17   19       1
    22   19   20       1
    23   20   21       1
    24   20   22       1
    25   22   23       1
    26   22   24       1
    27   24   25       1
    28   24   26       1
    29   26   27       1
    30   27   28       1
    31   28   29      ar
    32   28   30      ar
    33   28   31      ar
    34    4   32       1
    35   10   33       1
    36   12   34       1
    37   12   35       1
    38   12   36       1
    39   14   37       1
    40   14   38       1
    41   14   39       1
    42   15   40       1
    43   19   41       1
    44   19   42       1
    45   20   43       1
    46   21   44       1
    47   22   45       1
    48   23   46       1
    49   24   47       1
    50   25   48       1
    51   26   49       1
    52   26   50       1
@<TRIPOS>SUBSTRUCTURE
     1 FMN1001     1 GROUP             4 A     FMN     0 **** FMN A1001
