@<TRIPOS>MOLECULE
3owa_FAD_2_ligand
   84    89     1     0     0
SMALL
NO_CHARGES


@<TRIPOS>ATOM
     1 PA         -14.8470    23.2710   -17.8430 P.3          1 FAD601   0.0000
     2 O1A        -15.5040    22.1380   -18.6140 O.co2        1 FAD601   0.0000
     3 O2A        -15.1030    24.6170   -18.4100 O.co2        1 FAD601  -1.0000
     4 O5B        -13.3000    22.9210   -17.7620 O.3          1 FAD601   0.0000
     5 C5B        -12.8650    21.5930   -17.6910 C.3          1 FAD601   0.0000
     6 C4B        -11.3540    21.5520   -17.7450 C.3          1 FAD601   0.0000
     7 O4B        -10.9230    21.9900   -19.0290 O.3          1 FAD601   0.0000
     8 C3B        -10.7130    22.4750   -16.7040 C.3          1 FAD601   0.0000
     9 O3B         -9.5000    21.9030   -16.3000 O.3          1 FAD601   0.0000
    10 C2B        -10.3760    23.7030   -17.5440 C.3          1 FAD601   0.0000
    11 O2B         -9.2990    24.4280   -17.0190 O.3          1 FAD601   0.0000
    12 C1B        -10.0240    23.0720   -18.8930 C.3          1 FAD601   0.0000
    13 N9A        -10.1940    24.0200   -20.0180 N.pl3        1 FAD601   0.0000
    14 C8A        -11.3590    24.6050   -20.4710 C.2          1 FAD601   0.0000
    15 N7A        -11.0750    25.3910   -21.5470 N.2          1 FAD601   0.0000
    16 C5A         -9.7470    25.2970   -21.7850 C.ar         1 FAD601   0.0000
    17 C6A         -8.9040    25.8840   -22.7280 C.ar         1 FAD601   0.0000
    18 N6A         -9.3540    26.8370   -23.5570 N.pl3        1 FAD601   0.0000
    19 N1A         -7.5600    25.5740   -22.6970 N.ar         1 FAD601   0.0000
    20 C2A         -7.0430    24.7120   -21.7470 C.ar         1 FAD601   0.0000
    21 N3A         -7.8900    24.1310   -20.8260 N.ar         1 FAD601   0.0000
    22 C4A         -9.1960    24.4310   -20.8280 C.ar         1 FAD601   0.0000
    23 N1         -20.9100    29.9770   -11.5850 N.2          1 FAD601   0.0000
    24 C2         -21.6310    31.1320   -11.5190 C.2          1 FAD601   0.0000
    25 O2         -21.7470    31.8040   -12.5420 O.2          1 FAD601   0.0000
    26 N3         -22.2330    31.5270   -10.3330 N.pl3        1 FAD601   0.0000
    27 C4         -22.1150    30.7780    -9.1860 C.2          1 FAD601   0.0000
    28 O4         -22.6610    31.1610    -8.1440 O.2          1 FAD601   0.0000
    29 C4X        -21.3630    29.6120    -9.2430 C.2          1 FAD601   0.0000
    30 N5         -21.2110    28.8250    -8.1130 N.2          1 FAD601   0.0000
    31 C5X        -20.5210    27.6350    -8.1840 C.ar         1 FAD601   0.0000
    32 C6         -20.4480    26.8100    -7.0560 C.ar         1 FAD601   0.0000
    33 C7         -19.7580    25.6050    -7.1510 C.ar         1 FAD601   0.0000
    34 C7M        -19.6330    24.7120    -5.9370 C.3          1 FAD601   0.0000
    35 C8         -19.1830    25.2360    -8.3700 C.ar         1 FAD601   0.0000
    36 C8M        -18.4210    23.9580    -8.5390 C.3          1 FAD601   0.0000
    37 C9         -19.2480    26.0610    -9.4890 C.ar         1 FAD601   0.0000
    38 C9A        -19.9430    27.2530    -9.4100 C.ar         1 FAD601   0.0000
    39 N10        -20.0200    28.0760   -10.5260 N.pl3        1 FAD601   0.0000
    40 C10        -20.7660    29.2210   -10.4530 C.2          1 FAD601   0.0000
    41 C1'        -19.4070    27.6820   -11.8420 C.3          1 FAD601   0.0000
    42 C2'        -17.8840    27.4570   -11.6780 C.3          1 FAD601   0.0000
    43 O2'        -17.0950    28.5960   -11.2830 O.3          1 FAD601   0.0000
    44 C3'        -17.3600    26.6870   -12.9040 C.3          1 FAD601   0.0000
    45 O3'        -17.1280    25.3430   -12.5470 O.3          1 FAD601   0.0000
    46 C4'        -16.0970    27.3010   -13.4280 C.3          1 FAD601   0.0000
    47 O4'        -16.3860    28.6510   -13.7480 O.3          1 FAD601   0.0000
    48 C5'        -15.5410    26.1180   -14.6530 C.3          1 FAD601   0.0000
    49 O5'        -16.4200    25.5080   -15.5050 O.3          1 FAD601   0.0000
    50 P          -16.6390    23.9170   -15.7270 P.3          1 FAD601   0.0000
    51 O1P        -16.7420    23.3590   -14.3230 O.co2        1 FAD601   0.0000
    52 O2P        -17.8000    23.5260   -16.5510 O.co2        1 FAD601  -1.0000
    53 O3P        -15.2880    23.3130   -16.2930 O.3          1 FAD601   0.0000
    54 H5B1       -13.2399    21.0781   -18.4619 H            1 FAD601   0.0000
    55 H5B2       -13.1788    21.1851   -16.8336 H            1 FAD601   0.0000
    56 H4B        -11.0423    20.6141   -17.5929 H            1 FAD601   0.0000
    57 H3B        -11.3216    22.6813   -15.9378 H            1 FAD601   0.0000
    58 H5          -9.6593    21.3026   -15.5164 H            1 FAD601   0.0000
    59 H2B        -11.1790    24.2919   -17.6354 H            1 FAD601   0.0000
    60 H7          -8.9698    23.9806   -16.1874 H            1 FAD601   0.0000
    61 H1B         -9.0837    22.7322   -18.8741 H            1 FAD601   0.0000
    62 H8A        -12.2668    24.4730   -20.0730 H            1 FAD601   0.0000
    63 H6A1        -8.7369    27.2483   -24.2279 H            1 FAD601   0.0000
    64 H6A2       -10.3067    27.1365   -23.5044 H            1 FAD601   0.0000
    65 H2A         -6.0635    24.5116   -21.7279 H            1 FAD601   0.0000
    66 H13        -22.7638    32.3742   -10.3120 H            1 FAD601   0.0000
    67 H14        -20.8835    27.0812    -6.1976 H            1 FAD601   0.0000
    68 H7M1       -19.1113    23.8935    -6.1776 H            1 FAD601   0.0000
    69 H7M2       -19.1604    25.2059    -5.2071 H            1 FAD601   0.0000
    70 H7M3       -20.5446    24.4461    -5.6235 H            1 FAD601   0.0000
    71 H8M1       -18.0952    23.8863    -9.4817 H            1 FAD601   0.0000
    72 H8M2       -17.6397    23.9507    -7.9148 H            1 FAD601   0.0000
    73 H8M3       -19.0192    23.1835    -8.3333 H            1 FAD601   0.0000
    74 H21        -18.7969    25.7943   -10.3407 H            1 FAD601   0.0000
    75 H1'1       -19.5631    28.4097   -12.5099 H            1 FAD601   0.0000
    76 H1'2       -19.8327    26.8366   -12.1645 H            1 FAD601   0.0000
    77 H2'        -17.8014    26.8130   -10.9175 H            1 FAD601   0.0000
    78 H25        -16.7818    29.0834   -12.0981 H            1 FAD601   0.0000
    79 H3'        -18.0544    26.7144   -13.6231 H            1 FAD601   0.0000
    80 H27        -17.2683    24.7571   -13.3452 H            1 FAD601   0.0000
    81 H4'        -15.4294    27.3025   -12.6835 H            1 FAD601   0.0000
    82 H29        -17.1056    28.6824   -14.4417 H            1 FAD601   0.0000
    83 H5'1       -15.0806    25.3862   -14.1505 H            1 FAD601   0.0000
    84 H5'2       -14.8770    26.5969   -15.2273 H            1 FAD601   0.0000
@<TRIPOS>BOND
     1    1    2      ar
     2    1    3      ar
     3    1    4       1
     4    1   53       1
     5    4    5       1
     6    5    6       1
     7    6    7       1
     8    6    8       1
     9    7   12       1
    10    8    9       1
    11    8   10       1
    12   10   11       1
    13   10   12       1
    14   12   13       1
    15   13   14       1
    16   13   22       1
    17   14   15       2
    18   15   16       1
    19   16   17      ar
    20   16   22      ar
    21   17   18       1
    22   17   19      ar
    23   19   20      ar
    24   20   21      ar
    25   21   22      ar
    26   23   24       1
    27   23   40       2
    28   24   25       2
    29   24   26       1
    30   26   27       1
    31   27   28       2
    32   27   29       1
    33   29   30       2
    34   29   40       1
    35   30   31       1
    36   31   32      ar
    37   31   38      ar
    38   32   33      ar
    39   33   34       1
    40   33   35      ar
    41   35   36       1
    42   35   37      ar
    43   37   38      ar
    44   38   39       1
    45   39   40       1
    46   39   41       1
    47   41   42       1
    48   42   43       1
    49   42   44       1
    50   44   45       1
    51   44   46       1
    52   46   47       1
    53   46   48       1
    54   48   49       1
    55   49   50       1
    56   50   51      ar
    57   50   52      ar
    58   50   53       1
    59   48   84       1
    60    5   54       1
    61    5   55       1
    62    6   56       1
    63    8   57       1
    64    9   58       1
    65   10   59       1
    66   11   60       1
    67   12   61       1
    68   14   62       1
    69   18   63       1
    70   18   64       1
    71   20   65       1
    72   26   66       1
    73   32   67       1
    74   34   68       1
    75   34   69       1
    76   34   70       1
    77   36   71       1
    78   36   72       1
    79   36   73       1
    80   37   74       1
    81   41   75       1
    82   41   76       1
    83   42   77       1
    84   43   78       1
    85   44   79       1
    86   45   80       1
    87   46   81       1
    88   47   82       1
    89   48   83       1
@<TRIPOS>SUBSTRUCTURE
     1 FAD601      1 GROUP             4 B     FAD     0 **** FAD B 601
