@<TRIPOS>MOLECULE
1rp4_FAD_1_ligand
   84    89     1     0     0
SMALL
NO_CHARGES


@<TRIPOS>ATOM
     1 PA          37.1970    53.8450    19.5060 P.3          1 FAD634   0.0000
     2 O1A         36.1120    53.8340    18.4940 O.co2        1 FAD634   0.0000
     3 O2A         38.5690    53.2790    19.3920 O.co2        1 FAD634  -1.0000
     4 O5B         36.5010    53.6020    20.8890 O.3          1 FAD634   0.0000
     5 C5B         35.1240    53.4030    21.2370 C.3          1 FAD634   0.0000
     6 C4B         35.1290    52.9580    22.6850 C.3          1 FAD634   0.0000
     7 O4B         34.7600    51.5570    22.5130 O.3          1 FAD634   0.0000
     8 C3B         36.3560    52.9760    23.6230 C.3          1 FAD634   0.0000
     9 O3B         35.7210    53.1460    24.8920 O.3          1 FAD634   0.0000
    10 C2B         37.0300    51.6880    23.4560 C.3          1 FAD634   0.0000
    11 O2B         37.5250    51.3120    24.6990 O.3          1 FAD634   0.0000
    12 C1B         35.9260    50.7910    22.8660 C.3          1 FAD634   0.0000
    13 N9A         36.3200    49.9780    21.7590 N.pl3        1 FAD634   0.0000
    14 C8A         37.2620    50.1450    20.7060 C.2          1 FAD634   0.0000
    15 N7A         37.4060    49.1560    19.8810 N.2          1 FAD634   0.0000
    16 C5A         36.6170    48.1540    20.4420 C.ar         1 FAD634   0.0000
    17 C6A         36.2950    46.8310    20.0650 C.ar         1 FAD634   0.0000
    18 N6A         36.7300    46.3440    18.8980 N.pl3        1 FAD634   0.0000
    19 N1A         35.4940    46.0690    20.8920 N.ar         1 FAD634   0.0000
    20 C2A         34.9030    46.4910    22.0470 C.ar         1 FAD634   0.0000
    21 N3A         35.1170    47.8610    22.3100 N.ar         1 FAD634   0.0000
    22 C4A         36.0020    48.6390    21.5060 C.ar         1 FAD634   0.0000
    23 N1          37.9800    55.9110    11.3080 N.2          1 FAD634   0.0000
    24 C2          39.0340    55.8990    10.4110 C.2          1 FAD634   0.0000
    25 O2          40.1100    56.4970    10.6430 O.2          1 FAD634   0.0000
    26 N3          38.7340    55.0690     9.3390 N.pl3        1 FAD634   0.0000
    27 C4          37.5200    54.3590     9.1610 C.2          1 FAD634   0.0000
    28 O4          37.3900    53.7320     8.0580 O.2          1 FAD634   0.0000
    29 C4X         36.5120    54.4400    10.1010 C.2          1 FAD634   0.0000
    30 N5          35.2190    53.8220     9.9930 N.2          1 FAD634   0.0000
    31 C5X         34.1560    53.9050    10.9390 C.ar         1 FAD634   0.0000
    32 C6          32.9330    53.2290    10.6980 C.ar         1 FAD634   0.0000
    33 C7          31.9090    53.3970    11.6680 C.ar         1 FAD634   0.0000
    34 C7M         30.7540    52.4890    11.2830 C.3          1 FAD634   0.0000
    35 C8          32.0210    54.2160    12.8290 C.ar         1 FAD634   0.0000
    36 C8M         31.1530    54.6090    14.0060 C.3          1 FAD634   0.0000
    37 C9          33.2580    54.8240    13.0520 C.ar         1 FAD634   0.0000
    38 C9A         34.3600    54.7400    12.1580 C.ar         1 FAD634   0.0000
    39 N10         35.7440    55.2630    12.1590 N.pl3        1 FAD634   0.0000
    40 C10         36.7750    55.2440    11.2470 C.2          1 FAD634   0.0000
    41 C1'         36.1750    55.6320    13.4580 C.3          1 FAD634   0.0000
    42 C2'         36.9390    54.8010    14.4450 C.3          1 FAD634   0.0000
    43 O2'         36.0850    53.6430    14.6400 O.3          1 FAD634   0.0000
    44 C3'         37.1050    55.4810    15.7770 C.3          1 FAD634   0.0000
    45 O3'         35.8280    55.7490    16.3430 O.3          1 FAD634   0.0000
    46 C4'         38.0900    56.6370    15.8370 C.3          1 FAD634   0.0000
    47 O4'         39.4270    56.3230    15.3460 O.3          1 FAD634   0.0000
    48 C5'         38.2430    57.2880    17.1430 C.3          1 FAD634   0.0000
    49 O5'         38.8370    56.5070    18.1890 O.3          1 FAD634   0.0000
    50 P           38.3750    56.5240    19.6830 P.3          1 FAD634   0.0000
    51 O1P         39.6970    56.1810    20.1650 O.co2        1 FAD634   0.0000
    52 O2P         37.6430    57.7750    20.0090 O.co2        1 FAD634  -1.0000
    53 O3P         37.2350    55.4030    19.7970 O.3          1 FAD634   0.0000
    54 H5B1        34.7158    52.6982    20.6568 H            1 FAD634   0.0000
    55 H5B2        34.6118    54.2559    21.1358 H            1 FAD634   0.0000
    56 H4B         34.3759    53.4205    23.1528 H            1 FAD634   0.0000
    57 H3B         36.9668    53.7395    23.4133 H            1 FAD634   0.0000
    58 H5          36.4154    53.1754    25.6110 H            1 FAD634   0.0000
    59 H2B         37.7816    51.7784    22.8026 H            1 FAD634   0.0000
    60 H7          36.8351    50.7745    25.1838 H            1 FAD634   0.0000
    61 H1B         35.6468    50.1654    23.5945 H            1 FAD634   0.0000
    62 H8A         37.7899    50.9885    20.6068 H            1 FAD634   0.0000
    63 H6A1        36.5022    45.4076    18.6309 H            1 FAD634   0.0000
    64 H6A2        37.2830    46.9162    18.2924 H            1 FAD634   0.0000
    65 H2A         34.3725    45.8910    22.6459 H            1 FAD634   0.0000
    66 H13         39.4338    54.9631     8.6325 H            1 FAD634   0.0000
    67 H14         32.7981    52.6621     9.8854 H            1 FAD634   0.0000
    68 H7M1        30.0161    52.5869    11.9508 H            1 FAD634   0.0000
    69 H7M2        30.4185    52.7429    10.3758 H            1 FAD634   0.0000
    70 H7M3        31.0670    51.5393    11.2689 H            1 FAD634   0.0000
    71 H8M1        31.6613    55.2304    14.6022 H            1 FAD634   0.0000
    72 H8M2        30.3280    55.0662    13.6738 H            1 FAD634   0.0000
    73 H8M3        30.8965    53.7900    14.5192 H            1 FAD634   0.0000
    74 H21         33.3761    55.3516    13.8933 H            1 FAD634   0.0000
    75 H1'1        35.3375    55.8912    13.9391 H            1 FAD634   0.0000
    76 H1'2        36.7425    56.4430    13.3161 H            1 FAD634   0.0000
    77 H2'         37.8259    54.5300    14.0709 H            1 FAD634   0.0000
    78 H25         36.6486    52.8458    14.8563 H            1 FAD634   0.0000
    79 H3'         37.5018    54.7805    16.3701 H            1 FAD634   0.0000
    80 H27         35.7475    55.2785    17.2217 H            1 FAD634   0.0000
    81 H4'         37.7290    57.3376    15.2215 H            1 FAD634   0.0000
    82 H29         39.4758    56.5151    14.3658 H            1 FAD634   0.0000
    83 H5'1        37.3330    57.5647    17.4516 H            1 FAD634   0.0000
    84 H5'2        38.8116    58.1000    17.0115 H            1 FAD634   0.0000
@<TRIPOS>BOND
     1    1    2      ar
     2    1    3      ar
     3    1    4       1
     4    1   53       1
     5    4    5       1
     6    5    6       1
     7    6    7       1
     8    6    8       1
     9    7   12       1
    10    8    9       1
    11    8   10       1
    12   10   11       1
    13   10   12       1
    14   12   13       1
    15   13   14       1
    16   13   22       1
    17   14   15       2
    18   15   16       1
    19   16   17      ar
    20   16   22      ar
    21   17   18       1
    22   17   19      ar
    23   19   20      ar
    24   20   21      ar
    25   21   22      ar
    26   23   24       1
    27   23   40       2
    28   24   25       2
    29   24   26       1
    30   26   27       1
    31   27   28       2
    32   27   29       1
    33   29   30       2
    34   29   40       1
    35   30   31       1
    36   31   32      ar
    37   31   38      ar
    38   32   33      ar
    39   33   34       1
    40   33   35      ar
    41   35   36       1
    42   35   37      ar
    43   37   38      ar
    44   38   39       1
    45   39   40       1
    46   39   41       1
    47   41   42       1
    48   42   43       1
    49   42   44       1
    50   44   45       1
    51   44   46       1
    52   46   47       1
    53   46   48       1
    54   48   49       1
    55   49   50       1
    56   50   51      ar
    57   50   52      ar
    58   50   53       1
    59   48   84       1
    60    5   54       1
    61    5   55       1
    62    6   56       1
    63    8   57       1
    64    9   58       1
    65   10   59       1
    66   11   60       1
    67   12   61       1
    68   14   62       1
    69   18   63       1
    70   18   64       1
    71   20   65       1
    72   26   66       1
    73   32   67       1
    74   34   68       1
    75   34   69       1
    76   34   70       1
    77   36   71       1
    78   36   72       1
    79   36   73       1
    80   37   74       1
    81   41   75       1
    82   41   76       1
    83   42   77       1
    84   43   78       1
    85   44   79       1
    86   45   80       1
    87   46   81       1
    88   47   82       1
    89   48   83       1
@<TRIPOS>SUBSTRUCTURE
     1 FAD634      1 GROUP             4 A     FAD     0 **** FAD A 634
