@<TRIPOS>MOLECULE
4da5_0H7_2_ligand
   40    43     1     0     0
SMALL
NO_CHARGES


@<TRIPOS>ATOM
     1 O1           7.8510    24.1750    26.8420 O.3          1 0H7502   0.0000
     2 C2           8.2900    25.5120    27.1330 C.3          1 0H7502   0.0000
     3 C3           7.6300    26.0460    28.4350 C.3          1 0H7502   0.0000
     4 C4           6.0970    26.0670    28.3220 C.3          1 0H7502   0.0000
     5 N5           5.5240    25.3080    29.4470 N.4          1 0H7502   1.0000
     6 C6           5.9270    23.8830    29.3750 C.3          1 0H7502   0.0000
     7 C7           7.4450    23.7670    29.5660 C.3          1 0H7502   0.0000
     8 C8           8.0400    25.1880    29.6790 C.3          1 0H7502   0.0000
     9 C9           7.4310    25.8390    30.9290 C.3          1 0H7502   0.0000
    10 C10          5.9020    25.9130    30.7450 C.3          1 0H7502   0.0000
    11 C11          9.7800    25.5600    27.2800 C.2          1 0H7502   0.0000
    12 C12         10.4550    26.5420    27.8810 C.2          1 0H7502   0.0000
    13 C13         11.8190    26.4410    27.7940 C.2          1 0H7502   0.0000
    14 C14         12.2490    25.4090    27.0770 C.2          1 0H7502   0.0000
    15 CL1         13.8990    25.0290    26.7800 Cl           1 0H7502   0.0000
    16 S16         10.8980    24.4820    26.4690 S.3          1 0H7502   0.0000
    17 C17          8.0170    26.3860    25.9320 C.2          1 0H7502   0.0000
    18 C18          7.8290    25.9370    24.6790 C.2          1 0H7502   0.0000
    19 C19          7.7370    26.9220    23.7070 C.2          1 0H7502   0.0000
    20 C20          7.9270    28.1680    24.1530 C.2          1 0H7502   0.0000
    21 CL2          7.8650    29.6130    23.1770 Cl           1 0H7502   0.0000
    22 S22          8.2300    28.1280    25.8890 S.3          1 0H7502   0.0000
    23 H1           7.0320    24.2103    26.2693 H            1 0H7502   0.0000
    24 H2           7.9454    26.9832    28.5838 H            1 0H7502   0.0000
    25 H3           5.8185    25.6476    27.4579 H            1 0H7502   0.0000
    26 H4           5.7711    27.0119    28.3542 H            1 0H7502   0.0000
    27 H5           5.6745    23.5105    28.4820 H            1 0H7502   0.0000
    28 H6           5.4608    23.3685    30.0947 H            1 0H7502   0.0000
    29 H7           7.8477    23.2950    28.7818 H            1 0H7502   0.0000
    30 H8           7.6408    23.2528    30.4011 H            1 0H7502   0.0000
    31 H9           9.0358    25.1437    29.7590 H            1 0H7502   0.0000
    32 H10          7.8020    26.7604    31.0444 H            1 0H7502   0.0000
    33 H11          7.6476    25.2890    31.7355 H            1 0H7502   0.0000
    34 H12          5.4537    25.4145    31.4869 H            1 0H7502   0.0000
    35 H13          5.6112    26.8696    30.7628 H            1 0H7502   0.0000
    36 H14         10.0003    27.2940    28.3583 H            1 0H7502   0.0000
    37 H15         12.4391    27.0905    28.2339 H            1 0H7502   0.0000
    38 H16          7.7604    24.9630    24.4633 H            1 0H7502   0.0000
    39 H17          7.5437    26.7164    22.7477 H            1 0H7502   0.0000
    40 H18          4.5279    25.3490    29.3684 H            1 0H7502   0.0000
@<TRIPOS>BOND
     1    1    2       1
     2    2    3       1
     3    2   11       1
     4    2   17       1
     5    3    4       1
     6    3    8       1
     7    4    5       1
     8    5    6       1
     9    5   10       1
    10    6    7       1
    11    7    8       1
    12    8    9       1
    13    9   10       1
    14   11   12       2
    15   11   16       1
    16   12   13       1
    17   13   14       2
    18   14   15       1
    19   14   16       1
    20   17   18       2
    21   17   22       1
    22   18   19       1
    23   19   20       2
    24   20   21       1
    25   20   22       1
    26    1   23       1
    27    3   24       1
    28    4   25       1
    29    4   26       1
    30    6   27       1
    31    6   28       1
    32    7   29       1
    33    7   30       1
    34    8   31       1
    35    9   32       1
    36    9   33       1
    37   10   34       1
    38   10   35       1
    39   12   36       1
    40   13   37       1
    41   18   38       1
    42   19   39       1
    43    5   40       1
@<TRIPOS>SUBSTRUCTURE
     1 0H7502      1 GROUP             4 B     0H7     0 **** 0H7 B 502
