@<TRIPOS>MOLECULE
4q93_STL_1_ligand
   29    30     1     0     0
SMALL
NO_CHARGES


@<TRIPOS>ATOM
     1 C1         -10.5260     9.6160    -7.4610 C.ar         1 STL401   0.0000
     2 C2          -9.1220     9.6830    -7.2780 C.ar         1 STL401   0.0000
     3 C3          -8.3870    10.7870    -7.7610 C.ar         1 STL401   0.0000
     4 C4          -9.1170    11.7870    -8.4090 C.ar         1 STL401   0.0000
     5 C5         -10.5000    11.6660    -8.5980 C.ar         1 STL401   0.0000
     6 C6         -11.2230    10.6040    -8.0970 C.ar         1 STL401   0.0000
     7 C7         -11.2450    12.6870    -9.3320 C.2          1 STL401   0.0000
     8 C8         -10.9900    13.2610   -10.4990 C.2          1 STL401   0.0000
     9 C9          -9.7070    13.4520   -11.2260 C.ar         1 STL401   0.0000
    10 C10         -9.0210    12.3350   -11.6790 C.ar         1 STL401   0.0000
    11 C11         -7.7750    12.4570   -12.3170 C.ar         1 STL401   0.0000
    12 C12         -7.2250    13.7000   -12.4900 C.ar         1 STL401   0.0000
    13 C13         -7.8730    14.8140   -11.9970 C.ar         1 STL401   0.0000
    14 C14         -9.1160    14.6900   -11.3660 C.ar         1 STL401   0.0000
    15 O1          -6.0040    13.8690   -13.0630 O.3          1 STL401   0.0000
    16 O2          -7.0000    10.9080    -7.6790 O.3          1 STL401   0.0000
    17 O3         -11.2940     8.5910    -7.0390 O.3          1 STL401   0.0000
    18 H1          -8.6481     8.9417    -6.8026 H            1 STL401   0.0000
    19 H2          -8.6445    12.6024    -8.7433 H            1 STL401   0.0000
    20 H3         -12.2171    10.5589    -8.1952 H            1 STL401   0.0000
    21 H4         -12.0803    13.0028    -8.8819 H            1 STL401   0.0000
    22 H5         -11.7938    13.6263   -10.9686 H            1 STL401   0.0000
    23 H6          -9.4199    11.4272   -11.5494 H            1 STL401   0.0000
    24 H7          -7.2935    11.6431   -12.6422 H            1 STL401   0.0000
    25 H8          -7.4516    15.7160   -12.0912 H            1 STL401   0.0000
    26 H9          -9.5784    15.5041   -11.0145 H            1 STL401   0.0000
    27 H10         -5.4820    13.0737   -13.3713 H            1 STL401   0.0000
    28 H11         -6.5466    11.7212    -8.0439 H            1 STL401   0.0000
    29 H12        -10.8767     7.8158    -6.5646 H            1 STL401   0.0000
@<TRIPOS>BOND
     1    1    2      ar
     2    1    6      ar
     3    1   17       1
     4    2    3      ar
     5    3    4      ar
     6    3   16       1
     7    4    5      ar
     8    5    6      ar
     9    5    7       1
    10    7    8       2
    11    8    9       1
    12    9   10      ar
    13    9   14      ar
    14   10   11      ar
    15   11   12      ar
    16   12   13      ar
    17   12   15       1
    18   13   14      ar
    19    2   18       1
    20    4   19       1
    21    6   20       1
    22    7   21       1
    23    8   22       1
    24   10   23       1
    25   11   24       1
    26   13   25       1
    27   14   26       1
    28   15   27       1
    29   16   28       1
    30   17   29       1
@<TRIPOS>SUBSTRUCTURE
     1 STL401      1 GROUP             4 A     STL     0 **** STL A 401
