@<TRIPOS>MOLECULE
1xl8_152_1_ligand
   26    25     1     0     0
SMALL
NO_CHARGES


@<TRIPOS>ATOM
     1 C1         -10.5400   143.3060    78.5480 C.2          1 152613   0.0000
     2 O1A         -9.8780   144.2640    78.9870 O.co2        1 152613   0.0000
     3 O1B        -11.6650   143.0020    79.0050 O.co2        1 152613  -1.0000
     4 C2          -9.9570   142.4730    77.4090 C.3          1 152613   0.0000
     5 C3         -10.5080   141.0390    77.3800 C.3          1 152613   0.0000
     6 O3         -10.0220   140.3670    76.2020 O.3          1 152613   0.0000
     7 C4         -10.0270   140.3020    78.6450 C.3          1 152613   0.0000
     8 N5         -10.4570   138.8950    78.6310 N.4          1 152613   1.0000
     9 C5A        -11.8210   138.7780    78.1080 C.3          1 152613   0.0000
    10 C5B         -9.5440   138.1170    77.7970 C.3          1 152613   0.0000
    11 C5C        -10.4210   138.3720    79.9970 C.3          1 152613   0.0000
    12 H1          -8.9639   142.4319    77.5187 H            1 152613   0.0000
    13 H2         -10.1783   142.9183    76.5414 H            1 152613   0.0000
    14 H3         -11.5076   141.0633    77.3648 H            1 152613   0.0000
    15 H4          -9.1265   140.7361    75.9533 H            1 152613   0.0000
    16 H5         -10.4095   140.7528    79.4515 H            1 152613   0.0000
    17 H6          -9.0285   140.3384    78.6849 H            1 152613   0.0000
    18 H5A1       -12.0959   137.8165    78.1059 H            1 152613   0.0000
    19 H5A2       -12.4459   139.3021    78.6866 H            1 152613   0.0000
    20 H5A3       -11.8519   139.1356    77.1746 H            1 152613   0.0000
    21 H5B1        -9.8352   137.1604    77.7867 H            1 152613   0.0000
    22 H5B2        -9.5541   138.4786    76.8647 H            1 152613   0.0000
    23 H5B3        -8.6178   138.1795    78.1688 H            1 152613   0.0000
    24 H5C1       -10.7122   137.4153    79.9954 H            1 152613   0.0000
    25 H5C2        -9.4891   138.4362    80.3540 H            1 152613   0.0000
    26 H5C3       -11.0370   138.9070    80.5751 H            1 152613   0.0000
@<TRIPOS>BOND
     1    1    2      ar
     2    1    3      ar
     3    1    4       1
     4    4    5       1
     5    5    6       1
     6    5    7       1
     7    7    8       1
     8    8    9       1
     9    8   10       1
    10    8   11       1
    11   11   26       1
    12    4   12       1
    13    4   13       1
    14    5   14       1
    15    6   15       1
    16    7   16       1
    17    7   17       1
    18    9   18       1
    19    9   19       1
    20    9   20       1
    21   10   21       1
    22   10   22       1
    23   10   23       1
    24   11   24       1
    25   11   25       1
@<TRIPOS>SUBSTRUCTURE
     1 152613      1 GROUP             4 A     152     0 **** 152 A 613
