@<TRIPOS>MOLECULE
3r1k_COA_1_ligand
   80    82     1     0     0
SMALL
NO_CHARGES


@<TRIPOS>ATOM
     1 N1A         19.4860   -21.6050    54.8940 N.ar         1 COA500   0.0000
     2 C2A         20.2930   -22.4470    55.6380 C.ar         1 COA500   0.0000
     3 N3A         20.7680   -23.6160    55.0770 N.ar         1 COA500   0.0000
     4 C4A         20.4410   -23.9390    53.7980 C.ar         1 COA500   0.0000
     5 C5A         19.6330   -23.1090    53.0320 C.ar         1 COA500   0.0000
     6 C6A         19.1490   -21.9300    53.5920 C.ar         1 COA500   0.0000
     7 N6A         18.2410   -21.2080    52.9420 N.pl3        1 COA500   0.0000
     8 N7A         19.4820   -23.6780    51.8140 N.2          1 COA500   0.0000
     9 C8A         20.1700   -24.8420    51.7910 C.2          1 COA500   0.0000
    10 N9A         20.7650   -25.0120    53.0150 N.pl3        1 COA500   0.0000
    11 C1B         21.7210   -26.0590    53.4130 C.3          1 COA500   0.0000
    12 C2B         21.0590   -27.4210    53.5620 C.3          1 COA500   0.0000
    13 O2B         20.4870   -27.6060    54.8370 O.3          1 COA500   0.0000
    14 C3B         22.2270   -28.3490    53.3090 C.3          1 COA500   0.0000
    15 O3B         22.9180   -28.5510    54.5130 O.3          1 COA500   0.0000
    16 P3B         23.6600   -29.9340    54.8310 P.3          1 COA500   0.0000
    17 O7A         22.7030   -31.0830    54.6120 O.co2        1 COA500   0.0000
    18 O8A         24.1240   -29.8880    56.2650 O.co2        1 COA500  -1.0000
    19 O9A         24.8400   -30.0710    53.9000 O.co2        1 COA500  -1.0000
    20 C4B         23.1340   -27.5760    52.3590 C.3          1 COA500   0.0000
    21 O4B         22.7640   -26.2130    52.4630 O.3          1 COA500   0.0000
    22 C5B         22.9930   -28.0530    50.9160 C.3          1 COA500   0.0000
    23 O5B         21.6220   -28.2510    50.6460 O.3          1 COA500   0.0000
    24 P1A         21.0480   -28.5060    49.1780 P.3          1 COA500   0.0000
    25 O1A         20.0900   -29.6620    49.1980 O.co2        1 COA500   0.0000
    26 O2A         22.1590   -28.7750    48.1990 O.co2        1 COA500  -1.0000
    27 O3A         20.2700   -27.1240    48.8800 O.3          1 COA500   0.0000
    28 P2A         19.0200   -27.0200    47.8620 P.3          1 COA500   0.0000
    29 O4A         17.7380   -27.3450    48.5840 O.co2        1 COA500   0.0000
    30 O5A         19.2320   -27.9540    46.6970 O.co2        1 COA500  -1.0000
    31 O6A         18.9790   -25.4820    47.3630 O.3          1 COA500   0.0000
    32 CBP         18.5650   -23.0460    47.6170 C.3          1 COA500   0.0000
    33 CCP         19.0730   -24.3620    48.2370 C.3          1 COA500   0.0000
    34 CDP         19.2680   -22.7940    46.2850 C.3          1 COA500   0.0000
    35 CEP         18.9380   -21.9060    48.5680 C.3          1 COA500   0.0000
    36 CAP         17.0350   -23.1430    47.4360 C.3          1 COA500   0.0000
    37 OAP         16.4000   -23.2800    48.6870 O.3          1 COA500   0.0000
    38 C9P         16.3670   -22.0710    46.5900 C.2          1 COA500   0.0000
    39 O9P         16.2300   -22.2270    45.1960 O.2          1 COA500   0.0000
    40 N8P         15.8920   -20.9860    47.2130 N.am         1 COA500   0.0000
    41 C7P         15.0960   -19.9810    46.5220 C.3          1 COA500   0.0000
    42 C6P         15.9290   -18.9800    45.7180 C.3          1 COA500   0.0000
    43 C5P         17.1830   -18.5740    46.4650 C.2          1 COA500   0.0000
    44 O5P         17.0950   -17.9670    47.5430 O.2          1 COA500   0.0000
    45 N4P         18.3450   -18.9050    45.8960 N.am         1 COA500   0.0000
    46 C3P         19.6280   -18.4260    46.3850 C.3          1 COA500   0.0000
    47 C2P         20.0190   -17.0670    45.8050 C.3          1 COA500   0.0000
    48 S1P         21.5010   -16.3440    46.5710 S.3          1 COA500   0.0000
    49 H2A         20.5318   -22.2097    56.5796 H            1 COA500   0.0000
    50 H6A1        17.9965   -21.4418    52.0010 H            1 COA500   0.0000
    51 H6A2        17.8027   -20.4312    53.3942 H            1 COA500   0.0000
    52 H8A         20.2339   -25.4702    51.0156 H            1 COA500   0.0000
    53 H1B         22.1254   -25.8037    54.2912 H            1 COA500   0.0000
    54 H2B         20.3640   -27.5437    52.8535 H            1 COA500   0.0000
    55 H7          20.0662   -28.5119    54.8853 H            1 COA500   0.0000
    56 H3B         21.9278   -29.2147    52.9078 H            1 COA500   0.0000
    57 H4B         24.0846   -27.6829    52.6504 H            1 COA500   0.0000
    58 H5B1        23.4891   -28.9127    50.7942 H            1 COA500   0.0000
    59 H5B2        23.3638   -27.3632    50.2942 H            1 COA500   0.0000
    60 HCP1        20.0322   -24.2408    48.4923 H            1 COA500   0.0000
    61 HCP2        18.5319   -24.5545    49.0557 H            1 COA500   0.0000
    62 HDP1        18.9339   -21.9390    45.8883 H            1 COA500   0.0000
    63 HDP2        20.2544   -22.7285    46.4358 H            1 COA500   0.0000
    64 HDP3        19.0760   -23.5495    45.6586 H            1 COA500   0.0000
    65 HEP1        18.6190   -21.0375    48.1886 H            1 COA500   0.0000
    66 HEP2        18.5073   -22.0594    49.4574 H            1 COA500   0.0000
    67 HEP3        19.9313   -21.8763    48.6793 H            1 COA500   0.0000
    68 HAP         16.8741   -24.0052    46.9557 H            1 COA500   0.0000
    69 H21         15.4108   -23.3415    48.5538 H            1 COA500   0.0000
    70 H8P         16.0902   -20.8612    48.1852 H            1 COA500   0.0000
    71 H7P1        14.5662   -19.4754    47.2029 H            1 COA500   0.0000
    72 H7P2        14.4730   -20.4485    45.8949 H            1 COA500   0.0000
    73 H6P1        15.3770   -18.1648    45.5427 H            1 COA500   0.0000
    74 H6P2        16.1902   -19.3991    44.8484 H            1 COA500   0.0000
    75 H4P         18.3322   -19.5086    45.0988 H            1 COA500   0.0000
    76 H3P1        20.3318   -19.0921    46.1383 H            1 COA500   0.0000
    77 H3P2        19.5796   -18.3455    47.3806 H            1 COA500   0.0000
    78 H2P1        19.2551   -16.4355    45.9378 H            1 COA500   0.0000
    79 H2P2        20.1923   -17.1794    44.8266 H            1 COA500   0.0000
    80 H1P         21.6985   -15.4605    46.1462 H            1 COA500   0.0000
@<TRIPOS>BOND
     1    1    2      ar
     2    1    6      ar
     3    2    3      ar
     4    3    4      ar
     5    4    5      ar
     6    4   10       1
     7    5    6      ar
     8    5    8       1
     9    6    7       1
    10    8    9       2
    11    9   10       1
    12   10   11       1
    13   11   12       1
    14   11   21       1
    15   12   13       1
    16   12   14       1
    17   14   15       1
    18   14   20       1
    19   15   16       1
    20   16   17      ar
    21   16   18      ar
    22   16   19      ar
    23   20   21       1
    24   20   22       1
    25   22   23       1
    26   23   24       1
    27   24   25      ar
    28   24   26      ar
    29   24   27       1
    30   27   28       1
    31   28   29      ar
    32   28   30      ar
    33   28   31       1
    34   31   33       1
    35   32   33       1
    36   32   34       1
    37   32   35       1
    38   32   36       1
    39   36   37       1
    40   36   38       1
    41   38   39       2
    42   38   40      am
    43   40   41       1
    44   41   42       1
    45   42   43       1
    46   43   44       2
    47   43   45      am
    48   45   46       1
    49   46   47       1
    50   47   48       1
    51    2   49       1
    52    7   50       1
    53    7   51       1
    54    9   52       1
    55   11   53       1
    56   12   54       1
    57   13   55       1
    58   14   56       1
    59   48   80       1
    60   47   79       1
    61   20   57       1
    62   22   58       1
    63   22   59       1
    64   47   78       1
    65   46   77       1
    66   33   60       1
    67   33   61       1
    68   34   62       1
    69   34   63       1
    70   34   64       1
    71   35   65       1
    72   35   66       1
    73   35   67       1
    74   36   68       1
    75   37   69       1
    76   40   70       1
    77   41   71       1
    78   41   72       1
    79   42   73       1
    80   42   74       1
    81   45   75       1
    82   46   76       1
@<TRIPOS>SUBSTRUCTURE
     1 COA500      1 GROUP             4 A     COA     0 **** COA A 500
