@<TRIPOS>MOLECULE
2w09_CM9_1_ligand
   51    52     1     0     0
SMALL
NO_CHARGES


@<TRIPOS>ATOM
     1 O1         -18.3850     0.3360    68.8500 O.2          1 CM91451   0.0000
     2 C8         -18.1670    -0.4470    69.7440 C.2          1 CM91451   0.0000
     3 C9         -19.3930    -1.0120    70.4180 C.3          1 CM91451   0.0000
     4 C10        -19.9850    -0.1870    71.5500 C.3          1 CM91451   0.0000
     5 C11        -21.1750    -0.9100    72.1830 C.3          1 CM91451   0.0000
     6 C12        -21.6820    -2.1080    71.3810 C.3          1 CM91451   0.0000
     7 C13        -22.8040    -2.8020    72.1430 C.3          1 CM91451   0.0000
     8 C14        -20.5640    -3.1110    71.0800 C.3          1 CM91451   0.0000
     9 C15        -19.2030    -2.4600    70.8460 C.3          1 CM91451   0.0000
    10 N3         -16.9130    -0.8220    70.0600 N.am         1 CM91451   0.0000
    11 C7         -15.7970    -0.2620    69.2780 C.3          1 CM91451   0.0000
    12 C16        -14.4890    -0.3220    70.0680 C.3          1 CM91451   0.0000
    13 C17        -14.3990     0.8890    71.0000 C.3          1 CM91451   0.0000
    14 S          -12.8370     1.0090    71.8330 S.3          1 CM91451   0.0000
    15 C18        -13.0510    -0.1820    73.1180 C.3          1 CM91451   0.0000
    16 C6         -15.7100    -1.0290    67.9660 C.2          1 CM91451   0.0000
    17 O2         -15.1960    -0.5360    66.9720 O.2          1 CM91451   0.0000
    18 N2         -16.2610    -2.2480    68.0230 N.am         1 CM91451   0.0000
    19 C5         -16.4170    -3.2150    67.0140 C.ar         1 CM91451   0.0000
    20 C1         -15.8330    -3.1710    65.7450 C.ar         1 CM91451   0.0000
    21 C2         -16.1010    -4.1950    64.8150 C.ar         1 CM91451   0.0000
    22 N1         -16.9380    -5.1870    65.1290 N.ar         1 CM91451   0.0000
    23 C3         -17.4950    -5.2420    66.3500 C.ar         1 CM91451   0.0000
    24 C4         -17.2580    -4.2590    67.3090 C.ar         1 CM91451   0.0000
    25 H1         -20.0984    -1.0351    69.7095 H            1 CM91451   0.0000
    26 H2         -20.2908     0.6939    71.1887 H            1 CM91451   0.0000
    27 H3         -19.2842    -0.0362    72.2472 H            1 CM91451   0.0000
    28 H4         -21.9253    -0.2556    72.2766 H            1 CM91451   0.0000
    29 H5         -20.8996    -1.2331    73.0884 H            1 CM91451   0.0000
    30 H6         -22.0492    -1.7743    70.5128 H            1 CM91451   0.0000
    31 H7         -23.1318    -3.5847    71.6139 H            1 CM91451   0.0000
    32 H8         -22.4606    -3.1178    73.0275 H            1 CM91451   0.0000
    33 H9         -23.5561    -2.1590    72.2877 H            1 CM91451   0.0000
    34 H10        -20.8135    -3.6251    70.2594 H            1 CM91451   0.0000
    35 H11        -20.4851    -3.7380    71.8550 H            1 CM91451   0.0000
    36 H12        -18.6708    -2.4893    71.6921 H            1 CM91451   0.0000
    37 H13        -18.7157    -2.9574    70.1283 H            1 CM91451   0.0000
    38 H14        -16.7434    -1.4648    70.8070 H            1 CM91451   0.0000
    39 H15        -16.0011     0.6953    69.0735 H            1 CM91451   0.0000
    40 H16        -13.7159    -0.3125    69.4338 H            1 CM91451   0.0000
    41 H17        -14.4653    -1.1621    70.6100 H            1 CM91451   0.0000
    42 H18        -15.1218     0.8165    71.6872 H            1 CM91451   0.0000
    43 H19        -14.5359     1.7185    70.4586 H            1 CM91451   0.0000
    44 H20        -12.2241    -0.2193    73.6791 H            1 CM91451   0.0000
    45 H21        -13.8295     0.0795    73.6886 H            1 CM91451   0.0000
    46 H22        -13.2207    -1.0810    72.7143 H            1 CM91451   0.0000
    47 H23        -16.6158    -2.5109    68.9202 H            1 CM91451   0.0000
    48 H24        -15.2268    -2.4151    65.4978 H            1 CM91451   0.0000
    49 H25        -15.6627    -4.1788    63.9163 H            1 CM91451   0.0000
    50 H26        -18.0957    -6.0086    66.5769 H            1 CM91451   0.0000
    51 H27        -17.6974    -4.3138    68.2056 H            1 CM91451   0.0000
@<TRIPOS>BOND
     1    1    2       2
     2    2    3       1
     3    2   10      am
     4    3    4       1
     5    3    9       1
     6    4    5       1
     7    5    6       1
     8    6    7       1
     9    6    8       1
    10    8    9       1
    11   10   11       1
    12   11   12       1
    13   11   16       1
    14   12   13       1
    15   13   14       1
    16   14   15       1
    17   16   17       2
    18   16   18      am
    19   18   19       1
    20   19   20      ar
    21   19   24      ar
    22   20   21      ar
    23   21   22      ar
    24   22   23      ar
    25   23   24      ar
    26    3   25       1
    27    4   26       1
    28    4   27       1
    29    5   28       1
    30    5   29       1
    31    6   30       1
    32    7   31       1
    33    7   32       1
    34    7   33       1
    35    8   34       1
    36    8   35       1
    37    9   36       1
    38    9   37       1
    39   10   38       1
    40   11   39       1
    41   12   40       1
    42   12   41       1
    43   13   42       1
    44   13   43       1
    45   15   44       1
    46   15   45       1
    47   15   46       1
    48   18   47       1
    49   20   48       1
    50   21   49       1
    51   23   50       1
    52   24   51       1
@<TRIPOS>SUBSTRUCTURE
     1 CM91451     1 GROUP             4 A     CM9     0 **** CM9 A1451
