@<TRIPOS>MOLECULE
3aq0_ISY_1_ligand
   23    22     1     0     0
SMALL
NO_CHARGES


@<TRIPOS>ATOM
     1 P1         -39.0990    35.5070     1.6470 P.3          1 ISY1003   0.0000
     2 O2         -40.5190    35.7220     0.9340 O.3          1 ISY1003   0.0000
     3 P3         -41.6000    34.5770     0.7090 P.3          1 ISY1003   0.0000
     4 O4         -38.3270    36.7380     1.0100 O.co2        1 ISY1003   0.0000
     5 O5         -39.1720    35.5960     3.1220 O.co2        1 ISY1003  -1.0000
     6 O6         -38.3380    34.2230     1.0240 O.co2        1 ISY1003  -1.0000
     7 O7         -41.0360    33.2240     0.8550 O.co2        1 ISY1003   0.0000
     8 O8         -42.3710    34.9370    -0.5040 O.co2        1 ISY1003  -1.0000
     9 S9         -42.5920    34.8720     2.0500 S.3          1 ISY1003   0.0000
    10 C10        -44.0140    35.8180     1.3350 C.3          1 ISY1003   0.0000
    11 C11        -45.2210    35.2140     1.7250 C.2          1 ISY1003   0.0000
    12 C12        -46.3630    35.7850     2.2930 C.2          1 ISY1003   0.0000
    13 C13        -46.5360    37.2920     2.5510 C.3          1 ISY1003   0.0000
    14 C14        -47.5120    34.8740     2.6450 C.3          1 ISY1003   0.0000
    15 H1         -43.9475    35.8164     0.3372 H            1 ISY1003   0.0000
    16 H2         -43.9894    36.7602     1.6692 H            1 ISY1003   0.0000
    17 H3         -45.2704    34.2268     1.5733 H            1 ISY1003   0.0000
    18 H4         -47.4319    37.4590     2.9626 H            1 ISY1003   0.0000
    19 H5         -45.8194    37.6082     3.1727 H            1 ISY1003   0.0000
    20 H6         -46.4691    37.7882     1.6854 H            1 ISY1003   0.0000
    21 H7         -48.2560    35.4131     3.0397 H            1 ISY1003   0.0000
    22 H8         -47.8365    34.4125     1.8194 H            1 ISY1003   0.0000
    23 H9         -47.2055    34.1923     3.3093 H            1 ISY1003   0.0000
@<TRIPOS>BOND
     1    1    2       1
     2    1    4      ar
     3    1    5      ar
     4    1    6      ar
     5    2    3       1
     6    3    7      ar
     7    3    8      ar
     8    3    9       1
     9    9   10       1
    10   10   11       1
    11   11   12       2
    12   12   13       1
    13   12   14       1
    14   14   23       1
    15   14   22       1
    16   14   21       1
    17   10   15       1
    18   10   16       1
    19   11   17       1
    20   13   18       1
    21   13   19       1
    22   13   20       1
@<TRIPOS>SUBSTRUCTURE
     1 ISY1003     1 GROUP             4 A     ISY     0 **** ISY A1003
