@<TRIPOS>MOLECULE
3lad_FAD_2_ligand
   84    89     1     0     0
SMALL
NO_CHARGES


@<TRIPOS>ATOM
     1 PA          27.7870    44.5960    -4.6490 P.3          1 FAD480   0.0000
     2 O1A         28.1600    44.1870    -3.2750 O.co2        1 FAD480   0.0000
     3 O2A         27.8340    46.0250    -4.9190 O.co2        1 FAD480  -1.0000
     4 O5B         28.8070    43.7690    -5.5210 O.3          1 FAD480   0.0000
     5 C5B         28.7970    43.8550    -6.9410 C.3          1 FAD480   0.0000
     6 C4B         30.1760    43.4610    -7.4290 C.3          1 FAD480   0.0000
     7 O4B         30.1300    43.3200    -8.8650 O.3          1 FAD480   0.0000
     8 C3B         31.1920    44.5510    -7.0730 C.3          1 FAD480   0.0000
     9 O3B         32.2970    44.0850    -6.3050 O.3          1 FAD480   0.0000
    10 C2B         31.6960    45.0580    -8.4210 C.3          1 FAD480   0.0000
    11 O2B         33.1120    45.3170    -8.4430 O.3          1 FAD480   0.0000
    12 C1B         31.3510    43.9280    -9.3560 C.3          1 FAD480   0.0000
    13 N9A         31.2970    44.4720   -10.7270 N.pl3        1 FAD480   0.0000
    14 C8A         30.4240    45.4060   -11.1740 C.2          1 FAD480   0.0000
    15 N7A         30.3860    45.4000   -12.5220 N.2          1 FAD480   0.0000
    16 C5A         31.2940    44.4810   -12.8490 C.ar         1 FAD480   0.0000
    17 C6A         31.5930    44.1530   -14.1470 C.ar         1 FAD480   0.0000
    18 N6A         30.9660    44.7460   -15.1460 N.pl3        1 FAD480   0.0000
    19 N1A         32.5380    43.2070   -14.2930 N.ar         1 FAD480   0.0000
    20 C2A         33.1250    42.6490   -13.2390 C.ar         1 FAD480   0.0000
    21 N3A         32.8400    42.9530   -11.9740 N.ar         1 FAD480   0.0000
    22 C4A         31.8980    43.8880   -11.7600 C.ar         1 FAD480   0.0000
    23 N1          23.5070    45.3660     3.8940 N.2          1 FAD480   0.0000
    24 C2          23.1650    44.4740     4.8060 C.2          1 FAD480   0.0000
    25 O2          22.4790    43.5900     4.4460 O.2          1 FAD480   0.0000
    26 N3          23.7200    44.4890     6.0880 N.pl3        1 FAD480   0.0000
    27 C4          24.5650    45.5620     6.4520 C.2          1 FAD480   0.0000
    28 O4          25.0740    45.6230     7.5620 O.2          1 FAD480   0.0000
    29 C4X         24.9040    46.4680     5.4600 C.2          1 FAD480   0.0000
    30 N5          25.6670    47.5160     5.7120 N.2          1 FAD480   0.0000
    31 C5X         26.0480    48.3440     4.7140 C.ar         1 FAD480   0.0000
    32 C6          26.8730    49.3900     5.0490 C.ar         1 FAD480   0.0000
    33 C7          27.3440    50.2360     4.0940 C.ar         1 FAD480   0.0000
    34 C7M         28.3480    51.3120     4.5490 C.3          1 FAD480   0.0000
    35 C8          27.0630    49.9590     2.7450 C.ar         1 FAD480   0.0000
    36 C8M         27.6650    50.8170     1.6270 C.3          1 FAD480   0.0000
    37 C9          26.1660    48.9390     2.3900 C.ar         1 FAD480   0.0000
    38 C9A         25.6520    48.1370     3.3930 C.ar         1 FAD480   0.0000
    39 N10         24.7180    47.1390     3.1330 N.pl3        1 FAD480   0.0000
    40 C10         24.3310    46.3440     4.1800 C.2          1 FAD480   0.0000
    41 C1'         24.1100    46.8000     1.7640 C.3          1 FAD480   0.0000
    42 C2'         24.9930    45.9660     1.2670 C.3          1 FAD480   0.0000
    43 O2'         26.4100    46.0000     1.4170 O.3          1 FAD480   0.0000
    44 C3'         24.5240    45.7290    -0.1910 C.3          1 FAD480   0.0000
    45 O3'         23.1090    45.5350    -0.2000 O.3          1 FAD480   0.0000
    46 C4'         25.0960    44.4630    -0.8180 C.3          1 FAD480   0.0000
    47 O4'         26.4930    44.7170    -0.9550 O.3          1 FAD480   0.0000
    48 C5'         24.4850    44.1030    -2.1870 C.3          1 FAD480   0.0000
    49 O5'         25.3800    43.2510    -2.9100 O.3          1 FAD480   0.0000
    50 P           25.3910    42.9430    -4.5200 P.3          1 FAD480   0.0000
    51 O1P         25.9150    41.5670    -4.7100 O.co2        1 FAD480   0.0000
    52 O2P         24.0780    43.2760    -5.1200 O.co2        1 FAD480  -1.0000
    53 O3P         26.3640    44.0840    -5.0260 O.3          1 FAD480   0.0000
    54 H5B1        28.5884    44.7908    -7.2252 H            1 FAD480   0.0000
    55 H5B2        28.1108    43.2319    -7.3162 H            1 FAD480   0.0000
    56 H4B         30.4485    42.5941    -7.0117 H            1 FAD480   0.0000
    57 H3B         30.7322    45.2930    -6.5851 H            1 FAD480   0.0000
    58 H5          32.7874    43.3814    -6.8193 H            1 FAD480   0.0000
    59 H2B         31.1949    45.8825    -8.6838 H            1 FAD480   0.0000
    60 H7          33.5980    44.4891    -8.7229 H            1 FAD480   0.0000
    61 H1B         32.0826    43.2476    -9.3139 H            1 FAD480   0.0000
    62 H8A         29.8854    46.0124   -10.5890 H            1 FAD480   0.0000
    63 H6A1        31.1880    44.5030   -16.0903 H            1 FAD480   0.0000
    64 H6A2        30.2691    45.4382   -14.9584 H            1 FAD480   0.0000
    65 H2A         33.8261    41.9560   -13.4067 H            1 FAD480   0.0000
    66 H13         23.5230    43.7537     6.7365 H            1 FAD480   0.0000
    67 H14         27.1299    49.5309     6.0051 H            1 FAD480   0.0000
    68 H7M1        28.6194    51.8682     3.7635 H            1 FAD480   0.0000
    69 H7M2        27.9207    51.8960     5.2392 H            1 FAD480   0.0000
    70 H7M3        29.1557    50.8704     4.9397 H            1 FAD480   0.0000
    71 H8M1        27.3563    50.4733     0.7401 H            1 FAD480   0.0000
    72 H8M2        27.3686    51.7656     1.7385 H            1 FAD480   0.0000
    73 H8M3        28.6629    50.7720     1.6729 H            1 FAD480   0.0000
    74 H21         25.9050    48.7958     1.4353 H            1 FAD480   0.0000
    75 H1'1        24.0221    47.6170     1.1941 H            1 FAD480   0.0000
    76 H1'2        23.2153    46.3644     1.8625 H            1 FAD480   0.0000
    77 H2'         24.7503    45.1048     1.7135 H            1 FAD480   0.0000
    78 H25         26.8406    45.6026     0.6067 H            1 FAD480   0.0000
    79 H3'         24.7597    46.5209    -0.7543 H            1 FAD480   0.0000
    80 H27         22.7335    45.8598    -1.0681 H            1 FAD480   0.0000
    81 H4'         24.9628    43.6973    -0.1887 H            1 FAD480   0.0000
    82 H29         26.7494    44.6585    -1.9198 H            1 FAD480   0.0000
    83 H5'1        24.3282    44.9403    -2.7108 H            1 FAD480   0.0000
    84 H5'2        23.6155    43.6291    -2.0479 H            1 FAD480   0.0000
@<TRIPOS>BOND
     1    1    2      ar
     2    1    3      ar
     3    1    4       1
     4    1   53       1
     5    4    5       1
     6    5    6       1
     7    6    7       1
     8    6    8       1
     9    7   12       1
    10    8    9       1
    11    8   10       1
    12   10   11       1
    13   10   12       1
    14   12   13       1
    15   13   14       1
    16   13   22       1
    17   14   15       2
    18   15   16       1
    19   16   17      ar
    20   16   22      ar
    21   17   18       1
    22   17   19      ar
    23   19   20      ar
    24   20   21      ar
    25   21   22      ar
    26   23   24       1
    27   23   40       2
    28   24   25       2
    29   24   26       1
    30   26   27       1
    31   27   28       2
    32   27   29       1
    33   29   30       2
    34   29   40       1
    35   30   31       1
    36   31   32      ar
    37   31   38      ar
    38   32   33      ar
    39   33   34       1
    40   33   35      ar
    41   35   36       1
    42   35   37      ar
    43   37   38      ar
    44   38   39       1
    45   39   40       1
    46   39   41       1
    47   41   42       1
    48   42   43       1
    49   42   44       1
    50   44   45       1
    51   44   46       1
    52   46   47       1
    53   46   48       1
    54   48   49       1
    55   49   50       1
    56   50   51      ar
    57   50   52      ar
    58   50   53       1
    59   48   84       1
    60    5   54       1
    61    5   55       1
    62    6   56       1
    63    8   57       1
    64    9   58       1
    65   10   59       1
    66   11   60       1
    67   12   61       1
    68   14   62       1
    69   18   63       1
    70   18   64       1
    71   20   65       1
    72   26   66       1
    73   32   67       1
    74   34   68       1
    75   34   69       1
    76   34   70       1
    77   36   71       1
    78   36   72       1
    79   36   73       1
    80   37   74       1
    81   41   75       1
    82   41   76       1
    83   42   77       1
    84   43   78       1
    85   44   79       1
    86   45   80       1
    87   46   81       1
    88   47   82       1
    89   48   83       1
@<TRIPOS>SUBSTRUCTURE
     1 FAD480      1 GROUP             4 B     FAD     0 **** FAD B 480
