@<TRIPOS>MOLECULE
4jin_1L7_1_ligand
   33    34     1     0     0
SMALL
NO_CHARGES


@<TRIPOS>ATOM
     1 C10          9.7030    -3.0230     7.2510 C.2          1 1L7301   0.0000
     2 N12          9.1460    -0.9330     8.7890 N.1          1 1L7301   0.0000
     3 C13          8.8140    -3.6310     6.4790 C.2          1 1L7301   0.0000
     4 C15          7.6950    -2.0000     4.8750 C.ar         1 1L7301   0.0000
     5 C01         15.9550    -2.4780    10.6780 C.ar         1 1L7301   0.0000
     6 C02         15.2630    -1.4830    11.3760 C.ar         1 1L7301   0.0000
     7 C03         14.0060    -1.0730    10.9880 C.ar         1 1L7301   0.0000
     8 C04         13.4460    -1.6520     9.8870 C.ar         1 1L7301   0.0000
     9 C05         14.1490    -2.6330     9.2000 C.ar         1 1L7301   0.0000
    10 C06         15.4050    -3.0630     9.5850 C.ar         1 1L7301   0.0000
    11 C07         13.4750    -3.2640     7.9510 C.3          1 1L7301   0.0000
    12 N08         12.1150    -2.7450     7.9460 N.am         1 1L7301   0.0000
    13 C09         11.1110    -3.5330     7.2590 C.2          1 1L7301   0.0000
    14 C11          9.3840    -1.8280     8.1310 C.1          1 1L7301   0.0000
    15 C14          7.5810    -2.9410     5.9240 C.ar         1 1L7301   0.0000
    16 C16          6.5010    -1.4020     4.4010 C.ar         1 1L7301   0.0000
    17 N17          5.3060    -1.6970     4.9050 N.ar         1 1L7301   0.0000
    18 C18          5.1730    -2.5870     5.8890 C.ar         1 1L7301   0.0000
    19 C19          6.2880    -3.2480     6.4420 C.ar         1 1L7301   0.0000
    20 O20         11.4250    -4.5810     6.7120 O.2          1 1L7301   0.0000
    21 H1           8.9629    -4.5931     6.2504 H            1 1L7301   0.0000
    22 H2           8.5843    -1.7654     4.4825 H            1 1L7301   0.0000
    23 H3          16.8630    -2.7605    10.9875 H            1 1L7301   0.0000
    24 H4          15.6902    -1.0595    12.1748 H            1 1L7301   0.0000
    25 H5          13.5161    -0.3681    11.5010 H            1 1L7301   0.0000
    26 H6          12.5372    -1.3724     9.5773 H            1 1L7301   0.0000
    27 H7          15.8886    -3.7766     9.0781 H            1 1L7301   0.0000
    28 H8          13.4691    -4.2614     8.0223 H            1 1L7301   0.0000
    29 H9          13.9568    -2.9922     7.1179 H            1 1L7301   0.0000
    30 H10         11.8836    -1.8828     8.3967 H            1 1L7301   0.0000
    31 H11          6.5590    -0.7332     3.6598 H            1 1L7301   0.0000
    32 H12          4.2601    -2.7903     6.2430 H            1 1L7301   0.0000
    33 H13          6.1756    -3.9150     7.1785 H            1 1L7301   0.0000
@<TRIPOS>BOND
     1    1    3       2
     2    1   13       1
     3    1   14       1
     4    2   14       3
     5    3   15       1
     6    4   15      ar
     7    4   16      ar
     8    5    6      ar
     9    5   10      ar
    10    6    7      ar
    11    7    8      ar
    12    8    9      ar
    13    9   10      ar
    14    9   11       1
    15   11   12       1
    16   12   13      am
    17   13   20       2
    18   15   19      ar
    19   16   17      ar
    20   17   18      ar
    21   18   19      ar
    22    3   21       1
    23    4   22       1
    24    5   23       1
    25    6   24       1
    26    7   25       1
    27    8   26       1
    28   10   27       1
    29   11   28       1
    30   11   29       1
    31   12   30       1
    32   16   31       1
    33   18   32       1
    34   19   33       1
@<TRIPOS>SUBSTRUCTURE
     1 1L7301      1 GROUP             4 A     1L7     0 **** 1L7 A 301
