@<TRIPOS>MOLECULE
3hml_PQQ_2_ligand
   29    31     1     0     0
SMALL
NO_CHARGES


@<TRIPOS>ATOM
     1 N1          -7.9880    40.6410    32.9980 N.pl3        1 PQQ259   0.0000
     2 C2          -7.6510    39.5520    33.7940 C.2          1 PQQ259   0.0000
     3 C2X         -8.0150    38.1090    33.7150 C.2          1 PQQ259   0.0000
     4 O2A         -7.0570    37.3280    33.8850 O.co2        1 PQQ259   0.0000
     5 O2B         -9.1570    37.6630    33.4630 O.co2        1 PQQ259  -1.0000
     6 C3          -6.7570    39.9180    34.7920 C.2          1 PQQ259   0.0000
     7 C3A         -6.5630    41.3090    34.6070 C.ar         1 PQQ259   0.0000
     8 C1A         -7.3630    41.7530    33.4730 C.ar         1 PQQ259   0.0000
     9 C4          -5.7160    42.2600    35.3490 C.ar         1 PQQ259   0.0000
    10 O4          -5.0370    41.8240    36.3360 O.3          1 PQQ259   0.0000
    11 C5          -5.6950    43.6980    34.9250 C.ar         1 PQQ259   0.0000
    12 O5          -4.9680    44.4940    35.5880 O.3          1 PQQ259   0.0000
    13 C6A         -6.5430    44.1390    33.7340 C.ar         1 PQQ259   0.0000
    14 N6          -6.5790    45.4550    33.2970 N.ar         1 PQQ259   0.0000
    15 C7          -7.3390    45.8130    32.2330 C.ar         1 PQQ259   0.0000
    16 C7X         -7.4930    47.1590    31.5840 C.2          1 PQQ259   0.0000
    17 O7A         -6.9870    48.2180    31.9480 O.co2        1 PQQ259   0.0000
    18 O7B         -8.1630    47.1550    30.5510 O.co2        1 PQQ259  -1.0000
    19 C8          -8.1040    44.8780    31.5750 C.ar         1 PQQ259   0.0000
    20 C9          -8.1730    43.5300    31.8860 C.ar         1 PQQ259   0.0000
    21 C9X         -9.1030    42.6800    31.0560 C.2          1 PQQ259   0.0000
    22 O9A         -9.3890    43.0610    29.9070 O.co2        1 PQQ259   0.0000
    23 O9B         -9.6580    41.6840    31.5450 O.co2        1 PQQ259  -1.0000
    24 C9A         -7.3700    43.0790    33.0400 C.ar         1 PQQ259   0.0000
    25 H1          -8.5935    40.6119    32.2027 H            1 PQQ259   0.0000
    26 H2          -6.3424    39.3302    35.4867 H            1 PQQ259   0.0000
    27 H3          -5.0872    40.8580    36.5897 H            1 PQQ259   0.0000
    28 H4          -4.4345    44.1560    36.3633 H            1 PQQ259   0.0000
    29 H5          -8.6576    45.1989    30.8065 H            1 PQQ259   0.0000
@<TRIPOS>BOND
     1    1    2       1
     2    1    8       1
     3    2    3       1
     4    2    6       2
     5    3    4      ar
     6    3    5      ar
     7    6    7       1
     8    7    8      ar
     9    7    9      ar
    10    8   24      ar
    11    9   10       1
    12    9   11      ar
    13   11   12       1
    14   11   13      ar
    15   13   14      ar
    16   13   24      ar
    17   14   15      ar
    18   15   16       1
    19   15   19      ar
    20   16   17      ar
    21   16   18      ar
    22   19   20      ar
    23   20   21       1
    24   20   24      ar
    25   21   22      ar
    26   21   23      ar
    27    1   25       1
    28   19   29       1
    29    6   26       1
    30   10   27       1
    31   12   28       1
@<TRIPOS>SUBSTRUCTURE
     1 PQQ259      1 GROUP             4 B     PQQ     0 **** PQQ B 259
