@<TRIPOS>MOLECULE
3n6u_TSU_1_ligand
   18    18     1     0     0
SMALL
NO_CHARGES


@<TRIPOS>ATOM
     1 S          -14.6620   -12.9040    17.8900 S.o2         1 TSU1003   0.0000
     2 O1         -15.9950   -12.2020    18.0190 O.co2        1 TSU1003   0.0000
     3 O2         -14.8150   -14.3940    17.6190 O.co2        1 TSU1003   0.0000
     4 O3         -13.9570   -12.0550    16.8860 O.co2        1 TSU1003  -1.0000
     5 C1         -13.8030   -12.8770    19.2400 C.ar         1 TSU1003   0.0000
     6 C2         -14.3040   -13.4610    20.4200 C.ar         1 TSU1003   0.0000
     7 C3         -13.5460   -13.4180    21.5890 C.ar         1 TSU1003   0.0000
     8 C4         -12.3000   -12.7990    21.5180 C.ar         1 TSU1003   0.0000
     9 C5         -11.7860   -12.2520    20.3450 C.ar         1 TSU1003   0.0000
    10 C6         -12.5410   -12.2870    19.1930 C.ar         1 TSU1003   0.0000
    11 C7         -11.4260   -12.7260    22.7230 C.3          1 TSU1003   0.0000
    12 H1         -15.2001   -13.9048    20.4190 H            1 TSU1003   0.0000
    13 H2         -13.8826   -13.8149    22.4429 H            1 TSU1003   0.0000
    14 H3         -10.8762   -11.8371    20.3389 H            1 TSU1003   0.0000
    15 H4         -12.1910   -11.8974    18.3411 H            1 TSU1003   0.0000
    16 H5         -10.5770   -12.2513    22.4908 H            1 TSU1003   0.0000
    17 H6         -11.8995   -12.2265    23.4484 H            1 TSU1003   0.0000
    18 H7         -11.2150   -13.6512    23.0383 H            1 TSU1003   0.0000
@<TRIPOS>BOND
     1    1    2      ar
     2    1    3      ar
     3    1    4      ar
     4    1    5       1
     5    5    6      ar
     6    5   10      ar
     7    6    7      ar
     8    7    8      ar
     9    8    9      ar
    10    8   11       1
    11    9   10      ar
    12   11   18       1
    13    6   12       1
    14    7   13       1
    15    9   14       1
    16   10   15       1
    17   11   16       1
    18   11   17       1
@<TRIPOS>SUBSTRUCTURE
     1 TSU1003     1 GROUP             4 A     TSU     0 **** TSU A1003
