@<TRIPOS>MOLECULE
4bri_UNP_2_ligand
   41    42     1     0     0
SMALL
NO_CHARGES


@<TRIPOS>ATOM
     1 O2G         72.5380     1.7710    31.5060 O.co2        1 UNP1395   0.0000
     2 PG          74.0450     1.8310    31.5370 P.3          1 UNP1395   0.0000
     3 O3G         74.6700     1.8230    32.9400 O.co2        1 UNP1395  -1.0000
     4 O1G         74.6790     0.8430    30.5440 O.co2        1 UNP1395  -1.0000
     5 N2B         74.4000     3.3790    30.8680 N.3          1 UNP1395   0.0000
     6 PB          75.7910     4.3050    31.3190 P.3          1 UNP1395   0.0000
     7 O1B         76.3660     4.7360    29.9890 O.co2        1 UNP1395   0.0000
     8 O3B         76.6750     3.6330    32.3710 O.co2        1 UNP1395  -1.0000
     9 O3A         75.1110     5.6530    31.9370 O.3          1 UNP1395   0.0000
    10 PA          75.5940     6.7400    33.0170 P.3          1 UNP1395   0.0000
    11 O1A         74.4270     7.7590    33.0700 O.co2        1 UNP1395   0.0000
    12 O2A         76.0020     6.2290    34.3180 O.co2        1 UNP1395  -1.0000
    13 O5'         76.8400     7.4040    32.3710 O.3          1 UNP1395   0.0000
    14 C5'         76.3500     8.5500    31.6180 C.3          1 UNP1395   0.0000
    15 C4'         77.4430     9.5770    31.2500 C.3          1 UNP1395   0.0000
    16 C3'         78.7450     8.8810    30.8200 C.3          1 UNP1395   0.0000
    17 O3'         79.4500     9.7280    29.8790 O.3          1 UNP1395   0.0000
    18 C2'         79.5120     8.7480    32.1250 C.3          1 UNP1395   0.0000
    19 O2'         80.9430     8.6020    32.0000 O.3          1 UNP1395   0.0000
    20 O4'         77.7510    10.3700    32.4350 O.3          1 UNP1395   0.0000
    21 C1'         79.1060    10.0470    32.8390 C.3          1 UNP1395   0.0000
    22 N1          79.2170     9.9690    34.2960 N.pl3        1 UNP1395   0.0000
    23 C2          80.1620    10.8650    34.9550 C.2          1 UNP1395   0.0000
    24 O2          80.8710    11.7000    34.3030 O.2          1 UNP1395   0.0000
    25 C6          78.4550     9.0870    34.9990 C.2          1 UNP1395   0.0000
    26 C5          78.5970     9.0630    36.3940 C.2          1 UNP1395   0.0000
    27 C4          79.5170     9.9470    37.0210 C.2          1 UNP1395   0.0000
    28 N3          80.2820    10.8260    36.2980 N.pl3        1 UNP1395   0.0000
    29 O4          79.6360     9.9190    38.2760 O.2          1 UNP1395   0.0000
    30 H2B         74.4685     3.2428    29.8797 H            1 UNP1395   0.0000
    31 H5'1        75.6558     9.0139    32.1684 H            1 UNP1395   0.0000
    32 H5'2        75.9356     8.2156    30.7716 H            1 UNP1395   0.0000
    33 H4'         77.1171    10.1732    30.5163 H            1 UNP1395   0.0000
    34 H3'         78.5566     7.9831    30.4222 H            1 UNP1395   0.0000
    35 H6          80.2977     9.2790    29.5966 H            1 UNP1395   0.0000
    36 H2'         79.1495     7.9691    32.6368 H            1 UNP1395   0.0000
    37 H8          81.1570     8.1394    31.1397 H            1 UNP1395   0.0000
    38 H1'         79.7084    10.7786    32.5199 H            1 UNP1395   0.0000
    39 H10         77.8140     8.4753    34.5353 H            1 UNP1395   0.0000
    40 H11         78.0546     8.4281    36.9442 H            1 UNP1395   0.0000
    41 H12         80.9248    11.4343    36.7635 H            1 UNP1395   0.0000
@<TRIPOS>BOND
     1    1    2      ar
     2    2    3      ar
     3    2    4      ar
     4    2    5       1
     5    5    6       1
     6    6    7      ar
     7    6    8      ar
     8    6    9       1
     9    9   10       1
    10   10   11      ar
    11   10   12      ar
    12   10   13       1
    13   13   14       1
    14   14   15       1
    15   15   16       1
    16   15   20       1
    17   16   17       1
    18   16   18       1
    19   18   19       1
    20   18   21       1
    21   20   21       1
    22   21   22       1
    23   22   23       1
    24   22   25       1
    25   23   24       2
    26   23   28       1
    27   25   26       2
    28   26   27       1
    29   27   28       1
    30   27   29       2
    31   28   41       1
    32   26   40       1
    33    5   30       1
    34   25   39       1
    35   21   38       1
    36   14   31       1
    37   14   32       1
    38   15   33       1
    39   16   34       1
    40   17   35       1
    41   18   36       1
    42   19   37       1
@<TRIPOS>SUBSTRUCTURE
     1 UNP1395     1 GROUP             4 B     UNP     0 **** UNP B1395
