@<TRIPOS>MOLECULE
3vkx_T3_1_ligand
   35    36     1     0     0
SMALL
NO_CHARGES


@<TRIPOS>ATOM
     1 C1         -20.0350     2.5880    39.0220 C.ar         1 T3301    0.0000
     2 C2         -16.9490     4.3200    35.5380 C.ar         1 T3301    0.0000
     3 C3         -20.5800     3.3930    38.0170 C.ar         1 T3301    0.0000
     4 C4         -17.1790     2.9670    35.2440 C.ar         1 T3301    0.0000
     5 C5         -19.7850     4.2150    37.2130 C.ar         1 T3301    0.0000
     6 C6         -16.6930     2.4200    34.0640 C.ar         1 T3301    0.0000
     7 C7         -18.3170     4.1590    37.4250 C.ar         1 T3301    0.0000
     8 C8         -15.9420     3.2890    33.1360 C.ar         1 T3301    0.0000
     9 C9         -17.7940     3.2620    38.4830 C.ar         1 T3301    0.0000
    10 C10        -15.7400     4.6210    33.4600 C.ar         1 T3301    0.0000
    11 C11        -18.6600     2.5010    39.2450 C.ar         1 T3301    0.0000
    12 C12        -16.2420     5.1330    34.6610 C.ar         1 T3301    0.0000
    13 C13        -20.9350     1.6910    39.8230 C.3          1 T3301    0.0000
    14 C15        -21.9350     2.3640    40.7360 C.3          1 T3301    0.0000
    15 C17        -22.7470     1.2380    41.3380 C.2          1 T3301    0.0000
    16 I1         -20.7270     5.3970    35.7300 I            1 T3301    0.0000
    17 I2         -17.0080     0.4100    33.5540 I            1 T3301    0.0000
    18 I3         -15.7470     3.1350    38.8180 I            1 T3301    0.0000
    19 N1         -21.2070     3.1170    41.7390 N.4          1 T3301    1.0000
    20 O1         -15.4670     2.7690    31.9840 O.3          1 T3301    0.0000
    21 O2         -17.4190     4.8830    36.6870 O.3          1 T3301    0.0000
    22 O3         -23.0030     0.2440    40.6060 O.co2        1 T3301    0.0000
    23 O4         -23.1090     1.3130    42.5390 O.co2        1 T3301   -1.0000
    24 H1         -21.5689     3.3803    37.8688 H            1 T3301    0.0000
    25 H2         -17.6931     2.3967    35.8847 H            1 T3301    0.0000
    26 H3         -15.2352     5.2164    32.8350 H            1 T3301    0.0000
    27 H4         -18.3033     1.8911    39.9526 H            1 T3301    0.0000
    28 H5         -16.0904     6.0944    34.8907 H            1 T3301    0.0000
    29 H6         -20.3533     1.1076    40.3898 H            1 T3301    0.0000
    30 H7         -21.4481     1.1243    39.1784 H            1 T3301    0.0000
    31 H8         -22.5275     2.9736    40.2094 H            1 T3301    0.0000
    32 H9         -21.0453     4.0460    41.4061 H            1 T3301    0.0000
    33 H10        -21.7430     3.1537    42.5824 H            1 T3301    0.0000
    34 H11        -14.9569     3.3472    31.3473 H            1 T3301    0.0000
    35 H12        -20.3307     2.6706    41.9201 H            1 T3301    0.0000
@<TRIPOS>BOND
     1    1    3      ar
     2    1   11      ar
     3    1   13       1
     4    2    4      ar
     5    2   12      ar
     6    2   21       1
     7    3    5      ar
     8    4    6      ar
     9    5    7      ar
    10    5   16       1
    11    6    8      ar
    12    6   17       1
    13    7    9      ar
    14    7   21       1
    15    8   10      ar
    16    8   20       1
    17    9   11      ar
    18    9   18       1
    19   10   12      ar
    20   13   14       1
    21   14   15       1
    22   14   19       1
    23   15   22      ar
    24   15   23      ar
    25    3   24       1
    26    4   25       1
    27   10   26       1
    28   11   27       1
    29   12   28       1
    30   13   29       1
    31   13   30       1
    32   14   31       1
    33   19   32       1
    34   19   33       1
    35   20   34       1
    36   19   35       1
@<TRIPOS>SUBSTRUCTURE
     1 T3301       1 GROUP             4 A      T3     0 ****  T3 A 301
