@<TRIPOS>MOLECULE
3m2t_NAD_1_ligand
   74    78     1     0     0
SMALL
NO_CHARGES


@<TRIPOS>ATOM
     1 PA          38.5110    23.1710   116.3040 P.3          1 NAD358   0.0000
     2 O1A         37.5370    24.0220   117.2490 O.co2        1 NAD358   0.0000
     3 O2A         38.3720    23.6270   114.9800 O.co2        1 NAD358  -1.0000
     4 O5B         38.2690    21.5800   116.3620 O.3          1 NAD358   0.0000
     5 C5B         37.9060    20.8990   117.5050 C.3          1 NAD358   0.0000
     6 C4B         36.7790    19.9350   117.3150 C.3          1 NAD358   0.0000
     7 O4B         36.4560    19.1980   118.4890 O.3          1 NAD358   0.0000
     8 C3B         35.3910    20.5790   116.8860 C.3          1 NAD358   0.0000
     9 O3B         34.8330    20.3480   115.6610 O.3          1 NAD358   0.0000
    10 C2B         34.5430    20.4380   118.1510 C.3          1 NAD358   0.0000
    11 O2B         33.1870    20.5980   118.0580 O.3          1 NAD358   0.0000
    12 C1B         35.1170    19.1930   118.6900 C.3          1 NAD358   0.0000
    13 N9A         34.8260    18.9090   120.0570 N.pl3        1 NAD358   0.0000
    14 C8A         34.9640    19.6470   121.1000 C.2          1 NAD358   0.0000
    15 N7A         34.5800    18.8890   122.1980 N.2          1 NAD358   0.0000
    16 C5A         34.0360    17.7180   121.7270 C.ar         1 NAD358   0.0000
    17 C6A         33.4040    16.6560   122.3240 C.ar         1 NAD358   0.0000
    18 N6A         33.2620    16.5880   123.7440 N.pl3        1 NAD358   0.0000
    19 N1A         33.0490    15.6360   121.6220 N.ar         1 NAD358   0.0000
    20 C2A         33.2240    15.6230   120.3170 C.ar         1 NAD358   0.0000
    21 N3A         33.7470    16.6790   119.7110 N.ar         1 NAD358   0.0000
    22 C4A         34.1570    17.7090   120.4290 C.ar         1 NAD358   0.0000
    23 O3          40.0450    23.3850   116.7920 O.3          1 NAD358   0.0000
    24 PN          41.3740    22.6420   116.2100 P.3          1 NAD358   0.0000
    25 O1N         42.2630    23.8510   115.7670 O.co2        1 NAD358   0.0000
    26 O2N         41.1830    21.6850   114.9790 O.co2        1 NAD358  -1.0000
    27 O5D         42.1600    22.0160   117.4610 O.3          1 NAD358   0.0000
    28 C5D         42.1610    20.6900   117.8850 C.3          1 NAD358   0.0000
    29 C4D         43.4820    20.1810   118.4530 C.3          1 NAD358   0.0000
    30 O4D         44.5960    20.2010   117.5850 O.3          1 NAD358   0.0000
    31 C3D         44.0240    20.8670   119.7340 C.3          1 NAD358   0.0000
    32 O3D         44.1330    20.2840   120.9660 O.3          1 NAD358   0.0000
    33 C2D         45.1120    21.8040   119.1660 C.3          1 NAD358   0.0000
    34 O2D         45.8510    22.5330   120.0600 O.3          1 NAD358   0.0000
    35 C1D         45.6420    20.8410   118.1590 C.3          1 NAD358   0.0000
    36 N1N         46.5000    21.3870   117.1390 N.4          1 NAD358   1.0000
    37 C2N         47.7380    20.7860   116.8190 C.3          1 NAD358   0.0000
    38 C3N         48.7420    21.5230   115.8270 C.3          1 NAD358   0.0000
    39 C7N         49.8800    20.6570   115.3230 C.2          1 NAD358   0.0000
    40 O7N         50.6890    21.0700   114.5860 O.2          1 NAD358   0.0000
    41 N7N         50.1960    19.5700   116.1690 N.am         1 NAD358   0.0000
    42 C4N         48.0320    22.4200   114.8960 C.2          1 NAD358   0.0000
    43 C5N         46.6990    22.8250   115.1300 C.2          1 NAD358   0.0000
    44 C6N         45.9880    22.5330   116.3610 C.3          1 NAD358   0.0000
    45 H5B1        37.6321    21.5689   118.1951 H            1 NAD358   0.0000
    46 H5B2        38.7020    20.3897   117.8323 H            1 NAD358   0.0000
    47 H4B         37.0479    19.2828   116.6063 H            1 NAD358   0.0000
    48 H3B         35.5953    21.5576   116.8596 H            1 NAD358   0.0000
    49 H5          34.2418    19.5430   115.7105 H            1 NAD358   0.0000
    50 H2B         34.8558    21.1634   118.7642 H            1 NAD358   0.0000
    51 H7          32.8136    19.9179   117.4270 H            1 NAD358   0.0000
    52 H1B         34.7428    18.4400   118.1487 H            1 NAD358   0.0000
    53 H8A         35.2882    20.5928   121.1175 H            1 NAD358   0.0000
    54 H6A1        32.7988    15.8072   124.1634 H            1 NAD358   0.0000
    55 H6A2        33.6258    17.3212   124.3186 H            1 NAD358   0.0000
    56 H2A         32.9628    14.8180   119.7844 H            1 NAD358   0.0000
    57 H5D1        41.9214    20.1163   117.1018 H            1 NAD358   0.0000
    58 H5D2        41.4633    20.5934   118.5948 H            1 NAD358   0.0000
    59 H4D         43.3318    19.2217   118.6923 H            1 NAD358   0.0000
    60 H3D         43.2922    21.5255   119.9098 H            1 NAD358   0.0000
    61 H17         43.2290    19.9911   121.2773 H            1 NAD358   0.0000
    62 H2D         44.6111    22.4847   118.6315 H            1 NAD358   0.0000
    63 H19         46.3340    21.9123   120.6777 H            1 NAD358   0.0000
    64 H1D         46.1726    20.1545   118.6562 H            1 NAD358   0.0000
    65 H2N1        47.5314    19.8956   116.4133 H            1 NAD358   0.0000
    66 H2N2        48.2273    20.6541   117.6811 H            1 NAD358   0.0000
    67 H3N         49.2110    22.1663   116.4321 H            1 NAD358   0.0000
    68 H7N1        50.9332    18.9414   115.9212 H            1 NAD358   0.0000
    69 H7N2        49.6824    19.4294   117.0154 H            1 NAD358   0.0000
    70 H4N         48.5057    22.7495   114.0793 H            1 NAD358   0.0000
    71 H5N         46.2234    23.3365   114.4144 H            1 NAD358   0.0000
    72 H6N1        46.0346    23.3449   116.9429 H            1 NAD358   0.0000
    73 H6N2        45.0341    22.3445   116.1277 H            1 NAD358   0.0000
    74 H1N         46.9380    21.9978   117.7986 H            1 NAD358   0.0000
@<TRIPOS>BOND
     1    1    2      ar
     2    1    3      ar
     3    1    4       1
     4    1   23       1
     5    4    5       1
     6    5    6       1
     7    6    7       1
     8    6    8       1
     9    7   12       1
    10    8    9       1
    11    8   10       1
    12   10   11       1
    13   10   12       1
    14   12   13       1
    15   13   14       1
    16   13   22       1
    17   14   15       2
    18   15   16       1
    19   16   17      ar
    20   16   22      ar
    21   17   18       1
    22   17   19      ar
    23   19   20      ar
    24   20   21      ar
    25   21   22      ar
    26   23   24       1
    27   24   25      ar
    28   24   26      ar
    29   24   27       1
    30   27   28       1
    31   28   29       1
    32   29   30       1
    33   29   31       1
    34   30   35       1
    35   31   32       1
    36   31   33       1
    37   33   34       1
    38   33   35       1
    39   35   36       1
    40   36   37       1
    41   36   44       1
    42   37   38       1
    43   38   39       1
    44   38   42       1
    45   39   40       2
    46   39   41      am
    47   42   43       2
    48   43   44       1
    49   44   73       1
    50    5   45       1
    51    5   46       1
    52    6   47       1
    53    8   48       1
    54    9   49       1
    55   10   50       1
    56   11   51       1
    57   12   52       1
    58   14   53       1
    59   18   54       1
    60   18   55       1
    61   20   56       1
    62   44   72       1
    63   28   57       1
    64   28   58       1
    65   29   59       1
    66   31   60       1
    67   32   61       1
    68   33   62       1
    69   34   63       1
    70   35   64       1
    71   37   65       1
    72   37   66       1
    73   38   67       1
    74   41   68       1
    75   41   69       1
    76   42   70       1
    77   43   71       1
    78   36   74       1
@<TRIPOS>SUBSTRUCTURE
     1 NAD358      1 GROUP             4 A     NAD     0 **** NAD A 358
