@<TRIPOS>MOLECULE
1hak_K21_1_ligand
   63    66     1     0     0
SMALL
NO_CHARGES


@<TRIPOS>ATOM
     1 C1          25.4060    13.5650   -10.6830 C.ar         1 K21901   0.0000
     2 C2          24.3900    14.5030   -10.7810 C.ar         1 K21901   0.0000
     3 C3          23.6630    14.9200    -9.6590 C.ar         1 K21901   0.0000
     4 C4          24.0150    14.4360    -8.3930 C.ar         1 K21901   0.0000
     5 C5          25.0520    13.5200    -8.2710 C.ar         1 K21901   0.0000
     6 C6          25.7180    13.0450    -9.4120 C.ar         1 K21901   0.0000
     7 C10         22.4660    15.8280    -9.8150 C.3          1 K21901   0.0000
     8 N11         21.2210    15.0210    -9.8080 N.am         1 K21901   0.0000
     9 C12         20.6390    14.6940    -8.4690 C.3          1 K21901   0.0000
    10 C13         21.5590    14.0060    -7.4320 C.3          1 K21901   0.0000
    11 S14         23.0610    14.8940    -6.9300 S.3          1 K21901   0.0000
    12 C21         20.5640    14.5780   -10.9720 C.2          1 K21901   0.0000
    13 C22         21.1690    14.9160   -12.3910 C.3          1 K21901   0.0000
    14 O23         19.5240    13.9160   -10.9320 O.2          1 K21901   0.0000
    15 C24         20.4160    15.9960   -13.2130 C.3          1 K21901   0.0000
    16 N27         21.1520    17.2870   -13.2730 N.4          1 K21901   1.0000
    17 C30         21.9630    17.6290   -14.4770 C.3          1 K21901   0.0000
    18 C31         23.1670    18.5050   -14.0700 C.3          1 K21901   0.0000
    19 C32         22.7210    19.7260   -13.2190 C.3          1 K21901   0.0000
    20 C33         21.7700    19.3110   -12.0760 C.3          1 K21901   0.0000
    21 C34         20.5950    18.4780   -12.6020 C.3          1 K21901   0.0000
    22 C43         22.0690    20.8460   -14.0610 C.3          1 K21901   0.0000
    23 C45         24.0180    22.3890   -14.2430 C.ar         1 K21901   0.0000
    24 C48         24.9920    23.0480   -14.9870 C.ar         1 K21901   0.0000
    25 C49         25.0020    22.9350   -16.3760 C.ar         1 K21901   0.0000
    26 C50         24.0260    22.1670   -17.0180 C.ar         1 K21901   0.0000
    27 C51         23.0550    21.5020   -16.2730 C.ar         1 K21901   0.0000
    28 C52         23.0620    21.6040   -14.8850 C.ar         1 K21901   0.0000
    29 O58         26.0400    13.2570   -11.8920 O.3          1 K21901   0.0000
    30 C59         27.0210    12.2280   -11.8560 C.3          1 K21901   0.0000
    31 H1          24.1706    14.8919   -11.6758 H            1 K21901   0.0000
    32 H2          25.3258    13.1970    -7.3651 H            1 K21901   0.0000
    33 H3          26.4164    12.3349    -9.3219 H            1 K21901   0.0000
    34 H4          22.5357    16.3239   -10.6806 H            1 K21901   0.0000
    35 H5          22.4431    16.4807    -9.0578 H            1 K21901   0.0000
    36 H6          19.8578    14.0889    -8.6228 H            1 K21901   0.0000
    37 H7          20.3217    15.5515    -8.0640 H            1 K21901   0.0000
    38 H8          21.8440    13.1290    -7.8188 H            1 K21901   0.0000
    39 H9          21.0154    13.8460    -6.6080 H            1 K21901   0.0000
    40 H10         21.1771    14.0729   -12.9287 H            1 K21901   0.0000
    41 H11         22.1074    15.2339   -12.2555 H            1 K21901   0.0000
    42 H12         19.5238    16.1555   -12.7905 H            1 K21901   0.0000
    43 H13         20.2876    15.6571   -14.1450 H            1 K21901   0.0000
    44 H14         21.3936    18.1304   -15.1285 H            1 K21901   0.0000
    45 H15         22.2947    16.7873   -14.9031 H            1 K21901   0.0000
    46 H16         23.6234    18.8343   -14.8966 H            1 K21901   0.0000
    47 H17         23.8053    17.9517   -13.5348 H            1 K21901   0.0000
    48 H18         23.5423    20.1106   -12.7976 H            1 K21901   0.0000
    49 H19         21.4134    20.1342   -11.6341 H            1 K21901   0.0000
    50 H20         22.2804    18.7688   -11.4085 H            1 K21901   0.0000
    51 H21         20.0093    18.1975   -11.8415 H            1 K21901   0.0000
    52 H22         20.0605    19.0167   -13.2532 H            1 K21901   0.0000
    53 H23         21.6120    21.4856   -13.4429 H            1 K21901   0.0000
    54 H24         21.3940    20.4340   -14.6730 H            1 K21901   0.0000
    55 H25         24.0040    22.4787   -13.2471 H            1 K21901   0.0000
    56 H26         25.6844    23.6024   -14.5252 H            1 K21901   0.0000
    57 H27         25.7053    23.4020   -16.9120 H            1 K21901   0.0000
    58 H28         24.0250    22.0949   -18.0154 H            1 K21901   0.0000
    59 H29         22.3564    20.9541   -16.7331 H            1 K21901   0.0000
    60 H30         27.4016    12.0981   -12.7716 H            1 K21901   0.0000
    61 H31         27.7522    12.4865   -11.2247 H            1 K21901   0.0000
    62 H32         26.5990    11.3759   -11.5464 H            1 K21901   0.0000
    63 H33         21.8936    17.0774   -12.6357 H            1 K21901   0.0000
@<TRIPOS>BOND
     1    1    2      ar
     2    1    6      ar
     3    1   29       1
     4    2    3      ar
     5    3    4      ar
     6    3    7       1
     7    4    5      ar
     8    4   11       1
     9    5    6      ar
    10    7    8       1
    11    8    9       1
    12    8   12      am
    13    9   10       1
    14   10   11       1
    15   12   13       1
    16   12   14       2
    17   13   15       1
    18   15   16       1
    19   16   17       1
    20   16   21       1
    21   17   18       1
    22   18   19       1
    23   19   20       1
    24   19   22       1
    25   20   21       1
    26   22   28       1
    27   23   24      ar
    28   23   28      ar
    29   24   25      ar
    30   25   26      ar
    31   26   27      ar
    32   27   28      ar
    33   29   30       1
    34    2   31       1
    35    5   32       1
    36    6   33       1
    37    7   34       1
    38    7   35       1
    39    9   36       1
    40    9   37       1
    41   10   38       1
    42   10   39       1
    43   13   40       1
    44   13   41       1
    45   15   42       1
    46   15   43       1
    47   17   44       1
    48   17   45       1
    49   18   46       1
    50   18   47       1
    51   19   48       1
    52   20   49       1
    53   20   50       1
    54   21   51       1
    55   21   52       1
    56   22   53       1
    57   22   54       1
    58   23   55       1
    59   24   56       1
    60   25   57       1
    61   26   58       1
    62   27   59       1
    63   30   60       1
    64   30   61       1
    65   30   62       1
    66   16   63       1
@<TRIPOS>SUBSTRUCTURE
     1 K21901      1 GROUP             4 A     K21     0 **** K21 A 901
