@<TRIPOS>MOLECULE
4rkf_GNP_1_ligand
   45    47     1     0     0
SMALL
NO_CHARGES


@<TRIPOS>ATOM
     1 PG          18.6710     5.9390   146.6560 P.3          1 GNP201   0.0000
     2 O1G         18.6150     5.3750   148.0650 O.co2        1 GNP201   0.0000
     3 O2G         18.9490     7.4060   146.5660 O.co2        1 GNP201  -1.0000
     4 O3G         17.4210     5.5350   145.9130 O.co2        1 GNP201  -1.0000
     5 N3B         19.9370     5.1400   145.9560 N.3          1 GNP201   0.0000
     6 PB          20.4900     5.3320   144.4420 P.3          1 GNP201   0.0000
     7 O1B         19.7910     4.4280   143.5210 O.co2        1 GNP201   0.0000
     8 O2B         20.5410     6.7690   144.1120 O.co2        1 GNP201  -1.0000
     9 O3A         21.9780     4.8110   144.5310 O.3          1 GNP201   0.0000
    10 PA          23.3770     5.5560   144.5140 P.3          1 GNP201   0.0000
    11 O1A         23.5750     6.2410   143.2080 O.co2        1 GNP201   0.0000
    12 O2A         23.4750     6.3640   145.7570 O.co2        1 GNP201  -1.0000
    13 O5'         24.3980     4.3750   144.5320 O.3          1 GNP201   0.0000
    14 C5'         24.3370     3.3680   145.5560 C.3          1 GNP201   0.0000
    15 C4'         25.7000     2.6910   145.6470 C.3          1 GNP201   0.0000
    16 O4'         26.0020     2.0110   144.3930 O.3          1 GNP201   0.0000
    17 C3'         26.8740     3.6320   145.8940 C.3          1 GNP201   0.0000
    18 O3'         27.7820     2.9840   146.7960 O.3          1 GNP201   0.0000
    19 C2'         27.5180     3.8090   144.5110 C.3          1 GNP201   0.0000
    20 O2'         28.9080     4.0750   144.5200 O.3          1 GNP201   0.0000
    21 C1'         27.2720     2.4450   143.9060 C.3          1 GNP201   0.0000
    22 N9          27.1690     2.4270   142.4450 N.pl3        1 GNP201   0.0000
    23 C8          26.3040     3.1930   141.6820 C.2          1 GNP201   0.0000
    24 N7          26.3980     2.9210   140.3870 N.2          1 GNP201   0.0000
    25 C5          27.3760     1.9250   140.3120 C.2          1 GNP201   0.0000
    26 C6          27.9090     1.2210   139.1920 C.2          1 GNP201   0.0000
    27 O6          27.6430     1.3650   137.9970 O.2          1 GNP201   0.0000
    28 N1          28.8600     0.2530   139.5520 N.pl3        1 GNP201   0.0000
    29 C2          29.2590     0.0400   140.8390 C.2          1 GNP201   0.0000
    30 N2          30.1930    -0.9090   141.0060 N.pl3        1 GNP201   0.0000
    31 N3          28.7860     0.6790   141.9040 N.2          1 GNP201   0.0000
    32 C4          27.8310     1.5980   141.5710 C.2          1 GNP201   0.0000
    33 H3B         20.7220     5.3335   146.5445 H            1 GNP201   0.0000
    34 H5'1        23.6386     2.6912   145.3230 H            1 GNP201   0.0000
    35 H5'2        24.1111     3.7916   146.4332 H            1 GNP201   0.0000
    36 H4'         25.6728     2.0126   146.3812 H            1 GNP201   0.0000
    37 H3'         26.5631     4.5082   146.2623 H            1 GNP201   0.0000
    38 H6          28.6735     2.8813   146.3549 H            1 GNP201   0.0000
    39 H2'         27.0336     4.5120   143.9902 H            1 GNP201   0.0000
    40 H8          29.0581     5.0629   144.5580 H            1 GNP201   0.0000
    41 H1'         27.9842     1.8091   144.2033 H            1 GNP201   0.0000
    42 H10         25.6792     3.8741   142.0638 H            1 GNP201   0.0000
    43 H11         29.2647    -0.3078   138.8297 H            1 GNP201   0.0000
    44 H12         30.5335    -1.1196   141.9223 H            1 GNP201   0.0000
    45 H13         30.5485    -1.4056   140.2141 H            1 GNP201   0.0000
@<TRIPOS>BOND
     1    1    2      ar
     2    1    3      ar
     3    1    4      ar
     4    1    5       1
     5    5    6       1
     6    6    7      ar
     7    6    8      ar
     8    6    9       1
     9    9   10       1
    10   10   11      ar
    11   10   12      ar
    12   10   13       1
    13   13   14       1
    14   14   15       1
    15   15   16       1
    16   15   17       1
    17   16   21       1
    18   17   18       1
    19   17   19       1
    20   19   20       1
    21   19   21       1
    22   21   22       1
    23   22   23       1
    24   22   32       1
    25   23   24       2
    26   24   25       1
    27   25   26       1
    28   25   32       2
    29   26   27       2
    30   26   28       1
    31   28   29       1
    32   29   30       1
    33   29   31       2
    34   31   32       1
    35   30   45       1
    36   30   44       1
    37    5   33       1
    38   28   43       1
    39   23   42       1
    40   14   34       1
    41   14   35       1
    42   15   36       1
    43   17   37       1
    44   18   38       1
    45   19   39       1
    46   20   40       1
    47   21   41       1
@<TRIPOS>SUBSTRUCTURE
     1 GNP201      1 GROUP             4 A     GNP     0 **** GNP A 201
