@<TRIPOS>MOLECULE
2q28_ADP_2_ligand
   39    41     1     0     0
SMALL
NO_CHARGES


@<TRIPOS>ATOM
     1 PB           6.3350    20.0620    14.1200 P.3          1 ADP4003   0.0000
     2 O1B          5.8100    18.9700    13.2570 O.co2        1 ADP4003   0.0000
     3 O2B          6.6200    19.6810    15.5450 O.co2        1 ADP4003  -1.0000
     4 O3B          7.5190    20.7920    13.5000 O.co2        1 ADP4003  -1.0000
     5 PA           4.9250    22.3840    15.1300 P.3          1 ADP4003   0.0000
     6 O1A          3.9410    21.9600    16.2060 O.co2        1 ADP4003   0.0000
     7 O2A          6.2790    22.9080    15.5200 O.co2        1 ADP4003  -1.0000
     8 O3A          5.1360    21.1540    14.1290 O.3          1 ADP4003   0.0000
     9 O5'          4.2440    23.4730    14.1660 O.3          1 ADP4003   0.0000
    10 C5'          2.8780    23.3900    13.7570 C.3          1 ADP4003   0.0000
    11 C4'          2.5130    24.7690    13.1800 C.3          1 ADP4003   0.0000
    12 O4'          1.3120    24.6330    12.4100 O.3          1 ADP4003   0.0000
    13 C3'          2.2350    25.8650    14.2030 C.3          1 ADP4003   0.0000
    14 O3'          3.1270    26.9830    13.9960 O.3          1 ADP4003   0.0000
    15 C2'          0.7720    26.2690    13.9560 C.3          1 ADP4003   0.0000
    16 O2'          0.4720    27.6640    14.0760 O.3          1 ADP4003   0.0000
    17 C1'          0.5670    25.8640    12.5090 C.3          1 ADP4003   0.0000
    18 N9          -0.7780    25.4280    12.0910 N.pl3        1 ADP4003   0.0000
    19 C8          -1.6160    24.5550    12.7170 C.2          1 ADP4003   0.0000
    20 N7          -2.7310    24.3260    11.9650 N.2          1 ADP4003   0.0000
    21 C5          -2.5960    25.0600    10.8410 C.ar         1 ADP4003   0.0000
    22 C6          -3.3850    25.2810     9.6080 C.ar         1 ADP4003   0.0000
    23 N6          -4.5870    24.6670     9.4440 N.pl3        1 ADP4003   0.0000
    24 N1          -2.8570    26.1340     8.6750 N.ar         1 ADP4003   0.0000
    25 C2          -1.6750    26.7410     8.8530 C.ar         1 ADP4003   0.0000
    26 N3          -0.8930    26.5780     9.9400 N.ar         1 ADP4003   0.0000
    27 C4          -1.3080    25.7650    10.9300 C.ar         1 ADP4003   0.0000
    28 H5'1         2.2945    23.1776    14.5409 H            1 ADP4003   0.0000
    29 H5'2         2.7684    22.6828    13.0585 H            1 ADP4003   0.0000
    30 H4'          3.2506    25.0713    12.5761 H            1 ADP4003   0.0000
    31 H3'          2.3416    25.5061    15.1303 H            1 ADP4003   0.0000
    32 H5           2.9906    27.3525    13.0768 H            1 ADP4003   0.0000
    33 H2'          0.1665    25.7375    14.5483 H            1 ADP4003   0.0000
    34 H7           1.0159    28.1801    13.4143 H            1 ADP4003   0.0000
    35 H1'          0.9310    26.5564    11.8861 H            1 ADP4003   0.0000
    36 H9          -1.4377    24.1380    13.6082 H            1 ADP4003   0.0000
    37 H10         -5.1165    24.8192     8.6095 H            1 ADP4003   0.0000
    38 H11         -4.9416    24.0632    10.1579 H            1 ADP4003   0.0000
    39 H12         -1.3518    27.3548     8.1327 H            1 ADP4003   0.0000
@<TRIPOS>BOND
     1    1    2      ar
     2    1    3      ar
     3    1    4      ar
     4    1    8       1
     5    5    6      ar
     6    5    7      ar
     7    5    8       1
     8    5    9       1
     9    9   10       1
    10   10   11       1
    11   11   12       1
    12   11   13       1
    13   12   17       1
    14   13   14       1
    15   13   15       1
    16   15   16       1
    17   15   17       1
    18   17   18       1
    19   18   19       1
    20   18   27       1
    21   19   20       2
    22   20   21       1
    23   21   22      ar
    24   21   27      ar
    25   22   23       1
    26   22   24      ar
    27   24   25      ar
    28   25   26      ar
    29   26   27      ar
    30   25   39       1
    31   23   38       1
    32   23   37       1
    33   10   28       1
    34   10   29       1
    35   11   30       1
    36   13   31       1
    37   14   32       1
    38   15   33       1
    39   16   34       1
    40   17   35       1
    41   19   36       1
@<TRIPOS>SUBSTRUCTURE
     1 ADP4003     1 GROUP             4 A     ADP     0 **** ADP A4003
