@<TRIPOS>MOLECULE
2fni_PLP_1_ligand
   26    26     1     0     0
SMALL
NO_CHARGES


@<TRIPOS>ATOM
     1 N1          12.3300    46.7290    13.0290 N.ar         1 PLP376   1.0000
     2 C2          12.7640    48.0300    12.8820 C.ar         1 PLP376   0.0000
     3 C2A         12.0290    48.9550    11.9660 C.3          1 PLP376   0.0000
     4 C3          13.8760    48.4790    13.5830 C.ar         1 PLP376   0.0000
     5 O3          14.1280    49.8200    13.6510 O.3          1 PLP376   0.0000
     6 C4          14.5700    47.6230    14.4370 C.ar         1 PLP376   0.0000
     7 C4A         15.9450    48.0170    14.9140 C.3          1 PLP376   0.0000
     8 C5          14.1290    46.3040    14.5900 C.ar         1 PLP376   0.0000
     9 C6          13.0060    45.8710    13.8810 C.ar         1 PLP376   0.0000
    10 C5A         15.0350    45.2820    15.2540 C.3          1 PLP376   0.0000
    11 O4P         14.6340    45.0300    16.5860 O.3          1 PLP376   0.0000
    12 P           15.7120    44.7450    17.7390 P.3          1 PLP376   0.0000
    13 O1P         15.9720    43.2540    17.7830 O.co2        1 PLP376   0.0000
    14 O2P         15.1990    45.1690    19.0940 O.co2        1 PLP376  -1.0000
    15 O3P         16.9720    45.5260    17.4080 O.co2        1 PLP376  -1.0000
    16 H2A1        12.4699    49.8525    11.9746 H            1 PLP376   0.0000
    17 H2A2        12.0436    48.5853    11.0370 H            1 PLP376   0.0000
    18 H2A3        11.0819    49.0459    12.2737 H            1 PLP376   0.0000
    19 H4          14.9258    50.1540    14.1530 H            1 PLP376   0.0000
    20 H4A1        16.3066    47.3037    15.5144 H            1 PLP376   0.0000
    21 H4A2        16.5514    48.1292    14.1268 H            1 PLP376   0.0000
    22 H4A3        15.8889    48.8794    15.4172 H            1 PLP376   0.0000
    23 H8          12.6860    44.9298    13.9898 H            1 PLP376   0.0000
    24 H5A1        15.9724    45.6302    15.2562 H            1 PLP376   0.0000
    25 H5A2        14.9979    44.4278    14.7353 H            1 PLP376   0.0000
    26 H11         11.5304    46.4064    12.5225 H            1 PLP376   0.0000
@<TRIPOS>BOND
     1    1    2      ar
     2    1    9      ar
     3    2    3       1
     4    2    4      ar
     5    4    5       1
     6    4    6      ar
     7    6    7       1
     8    6    8      ar
     9    8    9      ar
    10    8   10       1
    11   10   11       1
    12   11   12       1
    13   12   13      ar
    14   12   14      ar
    15   12   15      ar
    16    3   16       1
    17    3   17       1
    18    3   18       1
    19    5   19       1
    20    7   20       1
    21    7   21       1
    22    7   22       1
    23    9   23       1
    24   10   24       1
    25   10   25       1
    26    1   26       1
@<TRIPOS>SUBSTRUCTURE
     1 PLP376      1 GROUP             4 A     PLP     0 **** PLP A 376
