@<TRIPOS>MOLECULE
2q14_ADP_4_ligand
   39    41     1     0     0
SMALL
NO_CHARGES


@<TRIPOS>ATOM
     1 PB         -33.1030   -26.0380   -51.7790 P.3          1 ADP501   0.0000
     2 O1B        -32.6370   -26.9510   -52.8890 O.co2        1 ADP501   0.0000
     3 O2B        -33.1650   -26.7380   -50.4420 O.co2        1 ADP501  -1.0000
     4 O3B        -32.3890   -24.6990   -51.7220 O.co2        1 ADP501  -1.0000
     5 PA         -35.5560   -25.9910   -53.3820 P.3          1 ADP501   0.0000
     6 O1A        -37.0140   -26.0170   -52.9780 O.co2        1 ADP501   0.0000
     7 O2A        -34.9760   -27.2000   -54.0920 O.co2        1 ADP501  -1.0000
     8 O3A        -34.6680   -25.6590   -52.0550 O.3          1 ADP501   0.0000
     9 O5'        -35.3270   -24.6950   -54.3260 O.3          1 ADP501   0.0000
    10 C5'        -34.4170   -24.7210   -55.4280 C.3          1 ADP501   0.0000
    11 C4'        -34.0650   -23.3070   -55.8660 C.3          1 ADP501   0.0000
    12 O4'        -35.2300   -22.6160   -56.3300 O.3          1 ADP501   0.0000
    13 C3'        -33.4640   -22.4660   -54.7490 C.3          1 ADP501   0.0000
    14 O3'        -32.0490   -22.3770   -54.9100 O.3          1 ADP501   0.0000
    15 C2'        -34.1320   -21.1000   -54.8570 C.3          1 ADP501   0.0000
    16 O2'        -33.2700   -20.1390   -55.4850 O.3          1 ADP501   0.0000
    17 C1'        -35.3730   -21.3220   -55.7160 C.3          1 ADP501   0.0000
    18 N9         -36.6530   -21.2730   -54.9490 N.pl3        1 ADP501   0.0000
    19 C8         -36.8870   -21.6090   -53.6530 C.2          1 ADP501   0.0000
    20 N7         -38.2050   -21.4380   -53.3380 N.2          1 ADP501   0.0000
    21 C5         -38.8330   -20.9880   -54.4390 C.ar         1 ADP501   0.0000
    22 C6         -40.2150   -20.5960   -54.8180 C.ar         1 ADP501   0.0000
    23 N6         -41.2250   -20.6540   -53.9320 N.pl3        1 ADP501   0.0000
    24 N1         -40.4360   -20.1770   -56.0870 N.ar         1 ADP501   0.0000
    25 C2         -39.4420   -20.1090   -57.0060 C.ar         1 ADP501   0.0000
    26 N3         -38.1630   -20.4420   -56.7330 N.ar         1 ADP501   0.0000
    27 C4         -37.8050   -20.8820   -55.4970 C.ar         1 ADP501   0.0000
    28 H5'1       -34.8410   -25.2059   -56.1929 H            1 ADP501   0.0000
    29 H5'2       -33.5818   -25.1974   -55.1532 H            1 ADP501   0.0000
    30 H4'        -33.4055   -23.3600   -56.6158 H            1 ADP501   0.0000
    31 H3'        -33.6781   -22.8778   -53.8633 H            1 ADP501   0.0000
    32 H5         -31.7851   -21.4182   -55.0148 H            1 ADP501   0.0000
    33 H2'        -34.3986   -20.7775   -53.9488 H            1 ADP501   0.0000
    34 H7         -33.1014   -19.3807   -54.8552 H            1 ADP501   0.0000
    35 H1'        -35.3988   -20.6252   -56.4328 H            1 ADP501   0.0000
    36 H9         -36.1889   -21.9369   -53.0165 H            1 ADP501   0.0000
    37 H10        -42.1480   -20.3855   -54.2077 H            1 ADP501   0.0000
    38 H11        -41.0531   -20.9656   -52.9975 H            1 ADP501   0.0000
    39 H12        -39.6669   -19.7976   -57.9293 H            1 ADP501   0.0000
@<TRIPOS>BOND
     1    1    2      ar
     2    1    3      ar
     3    1    4      ar
     4    1    8       1
     5    5    6      ar
     6    5    7      ar
     7    5    8       1
     8    5    9       1
     9    9   10       1
    10   10   11       1
    11   11   12       1
    12   11   13       1
    13   12   17       1
    14   13   14       1
    15   13   15       1
    16   15   16       1
    17   15   17       1
    18   17   18       1
    19   18   19       1
    20   18   27       1
    21   19   20       2
    22   20   21       1
    23   21   22      ar
    24   21   27      ar
    25   22   23       1
    26   22   24      ar
    27   24   25      ar
    28   25   26      ar
    29   26   27      ar
    30   25   39       1
    31   23   38       1
    32   23   37       1
    33   10   28       1
    34   10   29       1
    35   11   30       1
    36   13   31       1
    37   14   32       1
    38   15   33       1
    39   16   34       1
    40   17   35       1
    41   19   36       1
@<TRIPOS>SUBSTRUCTURE
     1 ADP501      1 GROUP             4 D     ADP     0 **** ADP D 501
