@<TRIPOS>MOLECULE
./coach420/3man/ligand.pdb
 33 35 0 0 0
SMALL
GASTEIGER

@<TRIPOS>ATOM
      1  C1        -5.5310   -3.1220   28.5590 C.3   401  BMA401      0.2695
      2  C2        -4.8650   -3.8500   27.3570 C.3   401  BMA401      0.2406
      3  C3        -5.7640   -5.0640   27.1720 C.3   401  BMA401      0.2198
      4  C4        -5.7390   -5.9480   28.3930 C.3   401  BMA401      0.2144
      5  C5        -6.2970   -5.1110   29.5750 C.3   401  BMA401      0.1835
      6  C6        -6.3780   -5.8560   30.8780 C.3   401  BMA401      0.2142
      7  O2        -3.5310   -4.1380   27.7210 O.3   401  BMA401     -0.2149
      8  O3        -5.2470   -5.6700   26.0100 O.3   401  BMA401     -0.2174
      9  O4        -6.5190   -7.1020   28.2160 O.3   401  BMA401     -0.2176
     10  O5        -5.4770   -3.9430   29.7310 O.3   401  BMA401     -0.3256
     11  O6        -5.1720   -5.4970   31.5110 O.3   401  BMA401     -0.2176
     12  C1        -4.2040    0.5160   32.1840 C.3   402  BMA402      0.2695
     13  C2        -4.4750   -0.8880   32.7920 C.3   402  BMA402      0.2404
     14  C3        -4.0220   -1.7870   31.6730 C.3   402  BMA402      0.2167
     15  C4        -4.8440   -1.3600   30.5220 C.3   402  BMA402      0.1804
     16  C5        -4.6530    0.0640   29.9560 C.3   402  BMA402      0.1803
     17  C6        -5.4950    0.4540   28.7630 C.3   402  BMA402      0.2141
     18  O2        -5.8640   -0.9100   33.0340 O.3   402  BMA402     -0.2149
     19  O3        -4.2650   -3.1330   32.0750 O.3   402  BMA402     -0.2175
     20  O4        -4.5130   -2.1630   29.3790 O.3   402  BMA402     -0.3257
     21  O5        -5.0200    0.8690   31.0630 O.3   402  BMA402     -0.3257
     22  O6        -6.8110   -0.0150   28.9460 O.3   402  BMA402     -0.2176
     23  C1        -4.7760    5.6790   33.6440 C.3   403  MAN403      0.1777
     24  C2        -5.1370    5.2740   32.1890 C.3   403  MAN403      0.2140
     25  C3        -5.5200    3.8020   32.2430 C.3   403  MAN403      0.2141
     26  C4        -4.3610    3.1130   32.8730 C.3   403  MAN403      0.1802
     27  C5        -3.9890    3.5560   34.2910 C.3   403  MAN403      0.1778
     28  C6        -2.8240    2.7410   34.8110 C.3   403  MAN403      0.2140
     29  O2        -4.0380    5.4130   31.2850 O.3   403  MAN403     -0.2176
     30  O3        -5.6980    3.3000   30.9160 O.3   403  MAN403     -0.2176
     31  O4        -4.6050    1.6850   32.9400 O.3   403  MAN403     -0.3257
     32  O5        -3.6630    4.9320   34.1150 O.3   403  MAN403     -0.3482
     33  O6        -2.3800    3.3150   36.0160 O.3   403  MAN403     -0.2176
@<TRIPOS>BOND
     1     1     2    1
     2     1    20    1
     3     1    10    1
     4     2     3    1
     5     2     7    1
     6     3     8    1
     7     3     4    1
     8     4     9    1
     9     4     5    1
    10     5    10    1
    11     5     6    1
    12     6    11    1
    13    12    21    1
    14    12    13    1
    15    12    31    1
    16    13    14    1
    17    13    18    1
    18    14    15    1
    19    14    19    1
    20    15    20    1
    21    15    16    1
    22    16    17    1
    23    16    21    1
    24    17    22    1
    25    23    24    1
    26    23    32    1
    27    24    29    1
    28    24    25    1
    29    25    30    1
    30    25    26    1
    31    26    31    1
    32    26    27    1
    33    27    32    1
    34    27    28    1
    35    28    33    1
