@<TRIPOS>MOLECULE
1pf7_IMH_1_ligand
   34    36     1     0     0
SMALL
NO_CHARGES


@<TRIPOS>ATOM
     1 O5'         50.7250    49.1780    30.2700 O.3          1 IMH290   0.0000
     2 C5'         49.9610    48.4690    31.2770 C.3          1 IMH290   0.0000
     3 C4'         50.4620    47.0280    31.5790 C.3          1 IMH290   0.0000
     4 N4'         50.5330    46.4580    30.2090 N.4          1 IMH290   1.0000
     5 C3'         51.9050    46.8660    32.1680 C.3          1 IMH290   0.0000
     6 O3'         51.9490    46.0500    33.4030 O.3          1 IMH290   0.0000
     7 C2'         52.8020    46.2210    31.0060 C.3          1 IMH290   0.0000
     8 O2'         53.4170    44.9330    31.3720 O.3          1 IMH290   0.0000
     9 C1'         51.8770    46.0030    29.8050 C.3          1 IMH290   0.0000
    10 C9          52.2990    46.8140    28.4380 C.2          1 IMH290   0.0000
    11 C8          51.4230    47.4420    27.6030 C.2          1 IMH290   0.0000
    12 N7          52.1450    48.0550    26.5000 N.pl3        1 IMH290   0.0000
    13 C5          53.5140    47.7290    26.7660 C.2          1 IMH290   0.0000
    14 C6          54.6950    48.1150    25.9440 C.2          1 IMH290   0.0000
    15 O6          54.7180    48.7860    24.8860 O.2          1 IMH290   0.0000
    16 N1          55.8760    47.6050    26.5400 N.pl3        1 IMH290   0.0000
    17 C2          55.9600    46.8450    27.7290 C.2          1 IMH290   0.0000
    18 N3          54.8430    46.5420    28.4090 N.2          1 IMH290   0.0000
    19 C4          53.6470    46.9970    27.9030 C.2          1 IMH290   0.0000
    20 H5'         50.3374    50.0904    30.1386 H            1 IMH290   0.0000
    21 H5'1        49.0130    48.4099    30.9642 H            1 IMH290   0.0000
    22 H5'2        49.9997    48.9964    32.1258 H            1 IMH290   0.0000
    23 H4'         49.7954    46.5311    32.1346 H            1 IMH290   0.0000
    24 H4'1        50.2334    47.1598    29.5627 H            1 IMH290   0.0000
    25 H3'         52.2649    47.7753    32.3771 H            1 IMH290   0.0000
    26 H7          51.2120    45.3744    33.3826 H            1 IMH290   0.0000
    27 H2'         53.5219    46.8668    30.7517 H            1 IMH290   0.0000
    28 H9          52.6999    44.2722    31.5936 H            1 IMH290   0.0000
    29 H1'         51.8385    45.0248    29.6008 H            1 IMH290   0.0000
    30 H11         50.4317    47.4759    27.7303 H            1 IMH290   0.0000
    31 H12         51.7730    48.5809    25.7351 H            1 IMH290   0.0000
    32 H13         56.8498    46.5337    28.0628 H            1 IMH290   0.0000
    33 H4'2        49.9116    45.6758    30.1635 H            1 IMH290   0.0000
    34 H15         56.7371    47.8030    26.0717 H            1 IMH290   0.0000
@<TRIPOS>BOND
     1    1    2       1
     2    2    3       1
     3    3    4       1
     4    3    5       1
     5    4    9       1
     6    5    6       1
     7    5    7       1
     8    7    8       1
     9    7    9       1
    10    9   10       1
    11   10   11       2
    12   10   19       1
    13   11   12       1
    14   12   13       1
    15   13   14       1
    16   13   19       2
    17   14   15       2
    18   14   16       1
    19   16   17       1
    20   17   18       2
    21   18   19       1
    22    1   20       1
    23    2   21       1
    24    2   22       1
    25    3   23       1
    26    4   24       1
    27    5   25       1
    28    6   26       1
    29    7   27       1
    30    8   28       1
    31    9   29       1
    32   11   30       1
    33   12   31       1
    34   17   32       1
    35   16   34       1
    36    4   33       1
@<TRIPOS>SUBSTRUCTURE
     1 IMH290      1 GROUP             4 E     IMH     0 **** IMH E 290
