@<TRIPOS>MOLECULE
4rx6_ATP_1_ligand
   43    45     1     0     0
SMALL
NO_CHARGES


@<TRIPOS>ATOM
     1 PG         -32.8690   -20.9010     7.7600 P.3          1 ATP200   0.0000
     2 O1G        -31.4210   -20.6840     7.3890 O.co2        1 ATP200   0.0000
     3 O2G        -33.6980   -19.6540     7.5650 O.co2        1 ATP200  -1.0000
     4 O3G        -33.1070   -21.6060     9.0770 O.co2        1 ATP200  -1.0000
     5 PB         -34.7640   -21.7190     5.7910 P.3          1 ATP200   0.0000
     6 O1B        -34.4940   -20.6880     4.7100 O.co2        1 ATP200   0.0000
     7 O2B        -35.2910   -23.0860     5.4210 O.co2        1 ATP200  -1.0000
     8 O3B        -33.4260   -21.9610     6.6730 O.3          1 ATP200   0.0000
     9 PA         -37.3990   -21.2150     6.7330 P.3          1 ATP200   0.0000
    10 O1A        -37.9660   -20.7610     8.0490 O.co2        1 ATP200   0.0000
    11 O2A        -37.8100   -22.5440     6.1630 O.co2        1 ATP200  -1.0000
    12 O3A        -35.7990   -21.0500     6.8240 O.3          1 ATP200   0.0000
    13 O5'        -37.7910   -20.1090     5.6500 O.3          1 ATP200   0.0000
    14 C5'        -39.1710   -19.9250     5.3810 C.3          1 ATP200   0.0000
    15 C4'        -39.3570   -18.5520     4.7810 C.3          1 ATP200   0.0000
    16 O4'        -39.6030   -17.6360     5.8420 O.3          1 ATP200   0.0000
    17 C3'        -38.1150   -18.0240     4.0880 C.3          1 ATP200   0.0000
    18 O3'        -37.9920   -18.4560     2.7240 O.3          1 ATP200   0.0000
    19 C2'        -38.3500   -16.5370     4.2030 C.3          1 ATP200   0.0000
    20 O2'        -39.3220   -16.1820     3.2200 O.3          1 ATP200   0.0000
    21 C1'        -38.9830   -16.3830     5.5740 C.3          1 ATP200   0.0000
    22 N9         -37.8650   -16.1310     6.5190 N.pl3        1 ATP200   0.0000
    23 C8         -37.0870   -17.0600     7.1120 C.2          1 ATP200   0.0000
    24 N7         -36.1230   -16.5010     7.8910 N.2          1 ATP200   0.0000
    25 C5         -36.2710   -15.1720     7.7900 C.ar         1 ATP200   0.0000
    26 C6         -35.5890   -13.9870     8.3520 C.ar         1 ATP200   0.0000
    27 N6         -34.5330   -14.1140     9.1930 N.pl3        1 ATP200   0.0000
    28 N1         -36.0730   -12.7740     7.9970 N.ar         1 ATP200   0.0000
    29 C2         -37.1190   -12.6230     7.1610 C.ar         1 ATP200   0.0000
    30 N3         -37.7850   -13.6500     6.6100 N.ar         1 ATP200   0.0000
    31 C4         -37.4180   -14.9290     6.8860 C.ar         1 ATP200   0.0000
    32 H5'1       -39.6938   -19.9966     6.2305 H            1 ATP200   0.0000
    33 H5'2       -39.4858   -20.6215     4.7362 H            1 ATP200   0.0000
    34 H4'        -40.1291   -18.5567     4.1455 H            1 ATP200   0.0000
    35 H3'        -37.2986   -18.2827     4.6042 H            1 ATP200   0.0000
    36 H5         -37.0242   -18.5191     2.4803 H            1 ATP200   0.0000
    37 H2'        -37.5054   -16.0095     4.1117 H            1 ATP200   0.0000
    38 H7         -39.5019   -15.1995     3.2688 H            1 ATP200   0.0000
    39 H1'        -39.6479   -15.6362     5.5875 H            1 ATP200   0.0000
    40 H9         -37.2056   -18.0457     6.9924 H            1 ATP200   0.0000
    41 H10        -34.0865   -13.2987     9.5616 H            1 ATP200   0.0000
    42 H11        -34.2007   -15.0230     9.4447 H            1 ATP200   0.0000
    43 H12        -37.4156   -11.6942     6.9387 H            1 ATP200   0.0000
@<TRIPOS>BOND
     1    1    2      ar
     2    1    3      ar
     3    1    4      ar
     4    1    8       1
     5    5    6      ar
     6    5    7      ar
     7    5    8       1
     8    5   12       1
     9    9   10      ar
    10    9   11      ar
    11    9   12       1
    12    9   13       1
    13   13   14       1
    14   14   15       1
    15   15   16       1
    16   15   17       1
    17   16   21       1
    18   17   18       1
    19   17   19       1
    20   19   20       1
    21   19   21       1
    22   21   22       1
    23   22   23       1
    24   22   31       1
    25   23   24       2
    26   24   25       1
    27   25   26      ar
    28   25   31      ar
    29   26   27       1
    30   26   28      ar
    31   28   29      ar
    32   29   30      ar
    33   30   31      ar
    34   29   43       1
    35   27   42       1
    36   27   41       1
    37   23   40       1
    38   14   32       1
    39   14   33       1
    40   15   34       1
    41   17   35       1
    42   18   36       1
    43   19   37       1
    44   20   38       1
    45   21   39       1
@<TRIPOS>SUBSTRUCTURE
     1 ATP200      1 GROUP             4 A     ATP     0 **** ATP A 200
