@<TRIPOS>MOLECULE
4mqy_2CW_1_ligand
   49    50     1     0     0
SMALL
NO_CHARGES


@<TRIPOS>ATOM
     1 O01        191.7280   105.5660     0.8240 O.2          1 2CW402   0.0000
     2 C02        192.4760   105.1640    -0.0650 C.2          1 2CW402   0.0000
     3 N03        193.1470   105.9670    -0.9020 N.am         1 2CW402   0.0000
     4 O04        192.9630   107.4050    -0.7280 O.3          1 2CW402  -1.0000
     5 C05        192.7030   103.6670    -0.2870 C.3          1 2CW402   0.0000
     6 N06        192.4640   102.9430     0.9710 N.am         1 2CW402   0.0000
     7 C07        193.2950   103.2030     1.9890 C.2          1 2CW402   0.0000
     8 C08        193.0320   102.4980     3.1570 C.ar         1 2CW402   0.0000
     9 C09        193.2360   103.0990     4.3930 C.ar         1 2CW402   0.0000
    10 C10        192.9720   102.3930     5.5620 C.ar         1 2CW402   0.0000
    11 C11        192.5040   101.0860     5.4940 C.ar         1 2CW402   0.0000
    12 C12        192.2470   100.4880     6.7240 C.1          1 2CW402   0.0000
    13 C13        192.0100    99.8790     7.9040 C.1          1 2CW402   0.0000
    14 C14        191.7610    99.1900     9.0230 C.1          1 2CW402   0.0000
    15 C15        191.5100    98.4830     9.9960 C.1          1 2CW402   0.0000
    16 C16        191.2350    97.6850    11.1250 C.ar         1 2CW402   0.0000
    17 C17        189.9270    97.5570    11.5800 C.ar         1 2CW402   0.0000
    18 C18        189.6640    96.8520    12.7480 C.ar         1 2CW402   0.0000
    19 C19        190.7080    96.2730    13.4610 C.ar         1 2CW402   0.0000
    20 C20        192.0160    96.4020    13.0070 C.ar         1 2CW402   0.0000
    21 C21        192.2790    97.1080    11.8380 C.ar         1 2CW402   0.0000
    22 N22        190.4560    95.5990    14.5790 N.pl3        1 2CW402   0.0000
    23 C23        192.3000   100.4850     4.2570 C.ar         1 2CW402   0.0000
    24 C24        192.5640   101.1900     3.0890 C.ar         1 2CW402   0.0000
    25 O25        194.2300   104.0000     1.9270 O.2          1 2CW402   0.0000
    26 C26        191.7370   103.1580    -1.3590 C.3          1 2CW402   0.0000
    27 O27        191.8380   103.9830    -2.5230 O.3          1 2CW402   0.0000
    28 C28        190.3040   103.2070    -0.8210 C.3          1 2CW402   0.0000
    29 C29        194.1430   103.4310    -0.7440 C.3          1 2CW402   0.0000
    30 H1         193.7460   105.5985    -1.6129 H            1 2CW402   0.0000
    31 H2         191.7152   102.2865     1.0621 H            1 2CW402   0.0000
    32 H3         193.5727   104.0393     4.4421 H            1 2CW402   0.0000
    33 H4         193.1189   102.8258     6.4514 H            1 2CW402   0.0000
    34 H5         189.1760    97.9723    11.0666 H            1 2CW402   0.0000
    35 H6         188.7237    96.7610    13.0760 H            1 2CW402   0.0000
    36 H7         192.7671    95.9874    13.5208 H            1 2CW402   0.0000
    37 H8         193.2193    97.2004    11.5105 H            1 2CW402   0.0000
    38 H9         191.2068    95.1826    15.0918 H            1 2CW402   0.0000
    39 H10        189.5157    95.5085    14.9071 H            1 2CW402   0.0000
    40 H11        191.9631    99.5448     4.2078 H            1 2CW402   0.0000
    41 H12        192.4175   100.7569     2.1996 H            1 2CW402   0.0000
    42 H13        191.9710   102.2155    -1.5976 H            1 2CW402   0.0000
    43 H14        192.5364   103.6120    -3.1350 H            1 2CW402   0.0000
    44 H15        189.6732   102.8743    -1.5220 H            1 2CW402   0.0000
    45 H16        190.2333   102.6294    -0.0077 H            1 2CW402   0.0000
    46 H17        190.0697   104.1493    -0.5820 H            1 2CW402   0.0000
    47 H18        194.2906   102.4526    -0.8889 H            1 2CW402   0.0000
    48 H19        194.3062   103.9230    -1.5992 H            1 2CW402   0.0000
    49 H20        194.7739   103.7631    -0.0428 H            1 2CW402   0.0000
@<TRIPOS>BOND
     1    1    2       2
     2    2    3      am
     3    2    5       1
     4    3    4       1
     5    5    6       1
     6    5   26       1
     7    5   29       1
     8    6    7      am
     9    7    8       1
    10    7   25       2
    11    8    9      ar
    12    8   24      ar
    13    9   10      ar
    14   10   11      ar
    15   11   12       1
    16   11   23      ar
    17   12   13       3
    18   13   14       1
    19   14   15       3
    20   15   16       1
    21   16   17      ar
    22   16   21      ar
    23   17   18      ar
    24   18   19      ar
    25   19   20      ar
    26   19   22       1
    27   20   21      ar
    28   23   24      ar
    29   26   27       1
    30   26   28       1
    31    3   30       1
    32   29   49       1
    33    6   31       1
    34    9   32       1
    35   10   33       1
    36   17   34       1
    37   18   35       1
    38   20   36       1
    39   21   37       1
    40   22   38       1
    41   22   39       1
    42   23   40       1
    43   24   41       1
    44   26   42       1
    45   27   43       1
    46   28   44       1
    47   28   45       1
    48   28   46       1
    49   29   47       1
    50   29   48       1
@<TRIPOS>SUBSTRUCTURE
     1 2CW402      1 GROUP             4 A     2CW     0 **** 2CW A 402
