@<TRIPOS>MOLECULE
4gp6_ADP_1_ligand
   39    41     1     0     0
SMALL
NO_CHARGES


@<TRIPOS>ATOM
     1 PB          38.7130     7.0870   163.3880 P.3          1 ADP1001   0.0000
     2 O1B         39.4900     5.8950   163.8980 O.co2        1 ADP1001   0.0000
     3 O2B         39.2490     7.6680   162.0970 O.co2        1 ADP1001  -1.0000
     4 O3B         38.3590     8.1520   164.4010 O.co2        1 ADP1001  -1.0000
     5 PA          36.7310     5.0240   163.4740 P.3          1 ADP1001   0.0000
     6 O1A         36.8240     5.0050   164.9880 O.co2        1 ADP1001   0.0000
     7 O2A         37.2790     3.8730   162.6610 O.co2        1 ADP1001  -1.0000
     8 O3A         37.2920     6.4430   162.9590 O.3          1 ADP1001   0.0000
     9 O5'         35.1820     5.1720   163.0890 O.3          1 ADP1001   0.0000
    10 C5'         34.5110     6.3560   163.5100 C.3          1 ADP1001   0.0000
    11 C4'         33.0430     6.0230   163.7030 C.3          1 ADP1001   0.0000
    12 O4'         32.4410     5.8320   162.4190 O.3          1 ADP1001   0.0000
    13 C3'         32.8790     4.7300   164.4760 C.3          1 ADP1001   0.0000
    14 O3'         31.7110     4.8120   165.2930 O.3          1 ADP1001   0.0000
    15 C2'         32.7210     3.6930   163.3810 C.3          1 ADP1001   0.0000
    16 O2'         31.9410     2.5630   163.7600 O.3          1 ADP1001   0.0000
    17 C1'         32.0330     4.4740   162.2850 C.3          1 ADP1001   0.0000
    18 N9          32.4140     3.9780   160.9510 N.pl3        1 ADP1001   0.0000
    19 C8          33.6310     3.5480   160.5470 C.2          1 ADP1001   0.0000
    20 N7          33.5840     3.1640   159.2430 N.2          1 ADP1001   0.0000
    21 C5          32.3250     3.3560   158.8180 C.ar         1 ADP1001   0.0000
    22 C6          31.5880     3.1610   157.5570 C.ar         1 ADP1001   0.0000
    23 N6          32.2260     2.6720   156.4680 N.pl3        1 ADP1001   0.0000
    24 N1          30.2740     3.4840   157.5490 N.ar         1 ADP1001   0.0000
    25 C2          29.6280     3.9680   158.6250 C.ar         1 ADP1001   0.0000
    26 N3          30.2450     4.1710   159.8020 N.ar         1 ADP1001   0.0000
    27 C4          31.5570     3.8830   159.9480 C.ar         1 ADP1001   0.0000
    28 H5'1        34.6085     7.0668   162.8134 H            1 ADP1001   0.0000
    29 H5'2        34.9016     6.6785   164.3722 H            1 ADP1001   0.0000
    30 H4'         32.5851     6.7692   164.1863 H            1 ADP1001   0.0000
    31 H3'         33.6893     4.5415   165.0309 H            1 ADP1001   0.0000
    32 H5          31.0387     5.4085   164.8545 H            1 ADP1001   0.0000
    33 H2'         33.6218     3.3923   163.0676 H            1 ADP1001   0.0000
    34 H7          31.8812     1.9262   162.9913 H            1 ADP1001   0.0000
    35 H1'         31.0415     4.4084   162.3973 H            1 ADP1001   0.0000
    36 H9          34.4474     3.5169   161.1237 H            1 ADP1001   0.0000
    37 H10         31.7253     2.5399   155.6125 H            1 ADP1001   0.0000
    38 H11         33.1981     2.4428   156.5189 H            1 ADP1001   0.0000
    39 H12         28.6548     4.1844   158.5467 H            1 ADP1001   0.0000
@<TRIPOS>BOND
     1    1    2      ar
     2    1    3      ar
     3    1    4      ar
     4    1    8       1
     5    5    6      ar
     6    5    7      ar
     7    5    8       1
     8    5    9       1
     9    9   10       1
    10   10   11       1
    11   11   12       1
    12   11   13       1
    13   12   17       1
    14   13   14       1
    15   13   15       1
    16   15   16       1
    17   15   17       1
    18   17   18       1
    19   18   19       1
    20   18   27       1
    21   19   20       2
    22   20   21       1
    23   21   22      ar
    24   21   27      ar
    25   22   23       1
    26   22   24      ar
    27   24   25      ar
    28   25   26      ar
    29   26   27      ar
    30   25   39       1
    31   23   38       1
    32   23   37       1
    33   10   28       1
    34   10   29       1
    35   11   30       1
    36   13   31       1
    37   14   32       1
    38   15   33       1
    39   16   34       1
    40   17   35       1
    41   19   36       1
@<TRIPOS>SUBSTRUCTURE
     1 ADP1001     1 GROUP             4 A     ADP     0 **** ADP A1001
