@<TRIPOS>MOLECULE
2i3g_NAP_1_ligand
   73    77     1     0     0
SMALL
NO_CHARGES


@<TRIPOS>ATOM
     1 PA          -8.3170    30.2380    -8.4340 P.3          1 NAP500   0.0000
     2 O1A         -8.5970    31.5930    -7.8320 O.co2        1 NAP500   0.0000
     3 O2A         -7.1810    29.3590    -7.9350 O.co2        1 NAP500  -1.0000
     4 O5B         -9.6290    29.2790    -8.3910 O.3          1 NAP500   0.0000
     5 C5B         -9.6640    28.0250    -9.0690 C.3          1 NAP500   0.0000
     6 C4B        -11.0250    27.3450    -8.9100 C.3          1 NAP500   0.0000
     7 O4B        -10.9690    26.1190    -9.6370 O.3          1 NAP500   0.0000
     8 C3B        -11.3530    26.9370    -7.4610 C.3          1 NAP500   0.0000
     9 O3B        -12.7710    26.9710    -7.2770 O.3          1 NAP500   0.0000
    10 C2B        -10.9270    25.4820    -7.3550 C.3          1 NAP500   0.0000
    11 O2B        -11.6600    24.7030    -6.4040 O.3          1 NAP500   0.0000
    12 C1B        -11.3010    25.0270    -8.7510 C.3          1 NAP500   0.0000
    13 N9A        -10.6140    23.7900    -9.1700 N.pl3        1 NAP500   0.0000
    14 C8A         -9.2890    23.5540    -9.1950 C.2          1 NAP500   0.0000
    15 N7A         -9.0860    22.3080    -9.6890 N.2          1 NAP500   0.0000
    16 C5A        -10.3000    21.7710    -9.9720 C.ar         1 NAP500   0.0000
    17 C6A        -10.7180    20.5480   -10.4770 C.ar         1 NAP500   0.0000
    18 N6A         -9.8150    19.5790   -10.8000 N.pl3        1 NAP500   0.0000
    19 N1A        -12.0460    20.3310   -10.6380 N.ar         1 NAP500   0.0000
    20 C2A        -12.9660    21.2660   -10.3210 C.ar         1 NAP500   0.0000
    21 N3A        -12.6080    22.4580    -9.8220 N.ar         1 NAP500   0.0000
    22 C4A        -11.2700    22.7190    -9.6420 C.ar         1 NAP500   0.0000
    23 O3          -8.0640    30.4570   -10.0070 O.3          1 NAP500   0.0000
    24 PN          -8.6010    31.7460   -10.8180 P.3          1 NAP500   0.0000
    25 O1N         -7.6100    32.8860   -10.8100 O.co2        1 NAP500   0.0000
    26 O2N        -10.0580    32.0580   -10.5540 O.co2        1 NAP500  -1.0000
    27 O5D         -8.4600    31.0040   -12.2610 O.3          1 NAP500   0.0000
    28 C5D         -9.3660    30.0230   -12.7700 C.3          1 NAP500   0.0000
    29 C4D         -9.4090    30.1500   -14.2950 C.3          1 NAP500   0.0000
    30 O4D         -9.7390    31.5040   -14.6530 O.3          1 NAP500   0.0000
    31 C3D         -8.0310    29.8380   -14.8910 C.3          1 NAP500   0.0000
    32 O3D         -8.1360    28.9860   -16.0340 O.3          1 NAP500   0.0000
    33 C2D         -7.5050    31.1740   -15.3440 C.3          1 NAP500   0.0000
    34 O2D         -6.7120    31.0740   -16.5330 O.3          1 NAP500   0.0000
    35 C1D         -8.7700    31.9810   -15.5970 C.3          1 NAP500   0.0000
    36 N1N         -8.4990    33.4170   -15.5100 N.ar         1 NAP500   1.0000
    37 C2N         -8.3250    34.0330   -14.3140 C.ar         1 NAP500   0.0000
    38 C3N         -8.0700    35.4050   -14.2490 C.ar         1 NAP500   0.0000
    39 C7N         -7.8620    36.1240   -12.9330 C.2          1 NAP500   0.0000
    40 O7N         -7.4590    37.4060   -12.9750 O.2          1 NAP500   0.0000
    41 N7N         -8.0300    35.5300   -11.8080 N.am         1 NAP500   0.0000
    42 C4N         -7.9800    36.1180   -15.4510 C.ar         1 NAP500   0.0000
    43 C5N         -8.1690    35.4780   -16.6870 C.ar         1 NAP500   0.0000
    44 C6N         -8.4250    34.1040   -16.6740 C.ar         1 NAP500   0.0000
    45 P2B        -11.1110    24.3600    -4.9060 P.3          1 NAP500   0.0000
    46 O1X        -11.8600    23.1490    -4.4260 O.co2        1 NAP500   0.0000
    47 O2X         -9.6500    24.0420    -5.1580 O.co2        1 NAP500  -1.0000
    48 O3X        -11.3890    25.6020    -4.0710 O.co2        1 NAP500  -1.0000
    49 H5B1        -8.9560    27.4295    -8.6893 H            1 NAP500   0.0000
    50 H5B2        -9.4867    28.1755   -10.0416 H            1 NAP500   0.0000
    51 H4B        -11.7483    27.9306    -9.2759 H            1 NAP500   0.0000
    52 H3B        -10.8778    27.5130    -6.7959 H            1 NAP500   0.0000
    53 H5         -12.9783    27.1948    -6.3247 H            1 NAP500   0.0000
    54 H2B         -9.9418    25.4047    -7.2021 H            1 NAP500   0.0000
    55 H1B        -12.2886    24.8738    -8.7855 H            1 NAP500   0.0000
    56 H8A         -8.5758    24.1896    -8.8995 H            1 NAP500   0.0000
    57 H6A1       -10.1307    18.7023   -11.1630 H            1 NAP500   0.0000
    58 H6A2        -8.8370    19.7449   -10.6739 H            1 NAP500   0.0000
    59 H2A        -13.9356    21.0656   -10.4613 H            1 NAP500   0.0000
    60 H5D1       -10.2789    30.1781   -12.3923 H            1 NAP500   0.0000
    61 H5D2        -9.0512    29.1085   -12.5160 H            1 NAP500   0.0000
    62 H4D        -10.0918    29.5228   -14.6697 H            1 NAP500   0.0000
    63 H3D         -7.4291    29.4347   -14.2017 H            1 NAP500   0.0000
    64 H16         -8.5688    28.1244   -15.7689 H            1 NAP500   0.0000
    65 H2D         -6.9709    31.5968   -14.6119 H            1 NAP500   0.0000
    66 H18         -5.7551    30.9249   -16.2839 H            1 NAP500   0.0000
    67 H1D         -9.0979    31.7756   -16.5191 H            1 NAP500   0.0000
    68 H2N         -8.3798    33.4994   -13.4700 H            1 NAP500   0.0000
    69 H7N1        -7.8859    36.0283   -10.9531 H            1 NAP500   0.0000
    70 H7N2        -8.3050    34.5688   -11.7863 H            1 NAP500   0.0000
    71 H4N         -7.7782    37.0972   -15.4290 H            1 NAP500   0.0000
    72 H5N         -8.1220    35.9876   -17.5462 H            1 NAP500   0.0000
    73 H6N         -8.5557    33.6202   -17.5394 H            1 NAP500   0.0000
@<TRIPOS>BOND
     1    1    2      ar
     2    1    3      ar
     3    1    4       1
     4    1   23       1
     5    4    5       1
     6    5    6       1
     7    6    7       1
     8    6    8       1
     9    7   12       1
    10    8    9       1
    11    8   10       1
    12   10   11       1
    13   10   12       1
    14   11   45       1
    15   12   13       1
    16   13   14       1
    17   13   22       1
    18   14   15       2
    19   15   16       1
    20   16   17      ar
    21   16   22      ar
    22   17   18       1
    23   17   19      ar
    24   19   20      ar
    25   20   21      ar
    26   21   22      ar
    27   23   24       1
    28   24   25      ar
    29   24   26      ar
    30   24   27       1
    31   27   28       1
    32   28   29       1
    33   29   30       1
    34   29   31       1
    35   30   35       1
    36   31   32       1
    37   31   33       1
    38   33   34       1
    39   33   35       1
    40   35   36       1
    41   36   37      ar
    42   36   44      ar
    43   37   38      ar
    44   38   39       1
    45   38   42      ar
    46   39   40       2
    47   39   41      am
    48   42   43      ar
    49   43   44      ar
    50   45   46      ar
    51   45   47      ar
    52   45   48      ar
    53   43   72       1
    54    5   49       1
    55    5   50       1
    56    6   51       1
    57    8   52       1
    58    9   53       1
    59   10   54       1
    60   12   55       1
    61   14   56       1
    62   18   57       1
    63   18   58       1
    64   20   59       1
    65   44   73       1
    66   28   60       1
    67   28   61       1
    68   29   62       1
    69   31   63       1
    70   32   64       1
    71   33   65       1
    72   34   66       1
    73   35   67       1
    74   37   68       1
    75   41   69       1
    76   41   70       1
    77   42   71       1
@<TRIPOS>SUBSTRUCTURE
     1 NAP500      1 GROUP             4 A     NAP     0 **** NAP A 500
