@<TRIPOS>MOLECULE
3qfr_FMN_2_ligand
   50    52     1     0     0
SMALL
NO_CHARGES


@<TRIPOS>ATOM
     1 N1           9.9430   -10.5690     6.0620 N.2          1 FMN751   0.0000
     2 C2           9.1920   -11.5750     6.5830 C.2          1 FMN751   0.0000
     3 O2           9.0980   -11.7060     7.7850 O.2          1 FMN751   0.0000
     4 N3           8.5550   -12.4210     5.7350 N.pl3        1 FMN751   0.0000
     5 C4           8.5950   -12.3510     4.3470 C.2          1 FMN751   0.0000
     6 O4           7.9440   -13.2290     3.7850 O.2          1 FMN751   0.0000
     7 C4A          9.3740   -11.2880     3.7540 C.2          1 FMN751   0.0000
     8 N5           9.4230   -11.1890     2.3460 N.2          1 FMN751   0.0000
     9 C5A         10.1860   -10.1490     1.8550 C.ar         1 FMN751   0.0000
    10 C6          10.2340   -10.0390     0.4120 C.ar         1 FMN751   0.0000
    11 C7          10.9810    -9.0240    -0.2270 C.ar         1 FMN751   0.0000
    12 C7M         10.9510    -9.0260    -1.7680 C.3          1 FMN751   0.0000
    13 C8          11.7460    -8.0280     0.5930 C.ar         1 FMN751   0.0000
    14 C8M         12.6030    -6.8740     0.0290 C.3          1 FMN751   0.0000
    15 C9          11.7060    -8.1240     1.9670 C.ar         1 FMN751   0.0000
    16 C9A         10.9400    -9.1670     2.6500 C.ar         1 FMN751   0.0000
    17 N10         10.8550    -9.3280     4.1230 N.pl3        1 FMN751   0.0000
    18 C10         10.0330   -10.4260     4.7010 C.2          1 FMN751   0.0000
    19 C1'         11.5820    -8.4060     4.9640 C.3          1 FMN751   0.0000
    20 C2'         13.0730    -8.8680     5.1980 C.3          1 FMN751   0.0000
    21 O2'         13.0510   -10.2280     5.7450 O.3          1 FMN751   0.0000
    22 C3'         13.8500    -7.8600     6.0600 C.3          1 FMN751   0.0000
    23 O3'         13.8600    -6.6020     5.3360 O.3          1 FMN751   0.0000
    24 C4'         15.3210    -8.3660     6.3060 C.3          1 FMN751   0.0000
    25 O4'         15.9230    -7.3000     7.1380 O.3          1 FMN751   0.0000
    26 C5'         16.1650    -8.5280     5.0500 C.3          1 FMN751   0.0000
    27 O5'         17.5120    -9.0450     5.3540 O.3          1 FMN751   0.0000
    28 P           18.7750    -8.9910     4.3760 P.3          1 FMN751   0.0000
    29 O1P         19.2260    -7.5830     4.1970 O.co2        1 FMN751   0.0000
    30 O2P         18.4880    -9.7660     3.1500 O.co2        1 FMN751  -1.0000
    31 O3P         19.8300    -9.6640     5.1770 O.co2        1 FMN751  -1.0000
    32 H1           8.0119   -13.1555     6.1418 H            1 FMN751   0.0000
    33 H2           9.7268   -10.6965    -0.1452 H            1 FMN751   0.0000
    34 H7M1        11.5089    -8.2713    -2.1132 H            1 FMN751   0.0000
    35 H7M2        11.3162    -9.8929    -2.1074 H            1 FMN751   0.0000
    36 H7M3        10.0085    -8.9152    -2.0832 H            1 FMN751   0.0000
    37 H8M1        13.0059    -6.3578     0.7848 H            1 FMN751   0.0000
    38 H8M2        13.3315    -7.2491    -0.5442 H            1 FMN751   0.0000
    39 H8M3        12.0266    -6.2677    -0.5189 H            1 FMN751   0.0000
    40 H9          12.2162    -7.4605     2.5142 H            1 FMN751   0.0000
    41 H1'1        11.1207    -8.3439     5.8490 H            1 FMN751   0.0000
    42 H1'2        11.5876    -7.5064     4.5272 H            1 FMN751   0.0000
    43 H2'         13.5202    -8.9091     4.3045 H            1 FMN751   0.0000
    44 H13         12.5992   -10.8408     5.0966 H            1 FMN751   0.0000
    45 H3'         13.3851    -7.7392     6.9371 H            1 FMN751   0.0000
    46 H15         13.8913    -5.8432     5.9866 H            1 FMN751   0.0000
    47 H4'         15.3034    -9.2258     6.8164 H            1 FMN751   0.0000
    48 H17         16.8716    -7.5368     7.3481 H            1 FMN751   0.0000
    49 H5'1        16.2539    -7.6377     4.6034 H            1 FMN751   0.0000
    50 H5'2        15.7058    -9.1664     4.4323 H            1 FMN751   0.0000
@<TRIPOS>BOND
     1    1    2       1
     2    1   18       2
     3    2    3       2
     4    2    4       1
     5    4    5       1
     6    5    6       2
     7    5    7       1
     8    7    8       2
     9    7   18       1
    10    8    9       1
    11    9   10      ar
    12    9   16      ar
    13   10   11      ar
    14   11   12       1
    15   11   13      ar
    16   13   14       1
    17   13   15      ar
    18   15   16      ar
    19   16   17       1
    20   17   18       1
    21   17   19       1
    22   19   20       1
    23   20   21       1
    24   20   22       1
    25   22   23       1
    26   22   24       1
    27   24   25       1
    28   24   26       1
    29   26   27       1
    30   27   28       1
    31   28   29      ar
    32   28   30      ar
    33   28   31      ar
    34    4   32       1
    35   10   33       1
    36   12   34       1
    37   12   35       1
    38   12   36       1
    39   14   37       1
    40   14   38       1
    41   14   39       1
    42   15   40       1
    43   19   41       1
    44   19   42       1
    45   20   43       1
    46   21   44       1
    47   22   45       1
    48   23   46       1
    49   24   47       1
    50   25   48       1
    51   26   49       1
    52   26   50       1
@<TRIPOS>SUBSTRUCTURE
     1 FMN751      1 GROUP             4 A     FMN     0 **** FMN A 751
