@<TRIPOS>MOLECULE
1cf3_FAD_1_ligand
   84    89     1     0     0
SMALL
NO_CHARGES


@<TRIPOS>ATOM
     1 PA          31.1800     6.4120    56.8330 P.3          1 FAD600   0.0000
     2 O1A         32.0590     5.8500    57.9110 O.co2        1 FAD600   0.0000
     3 O2A         31.1040     7.7550    56.6660 O.co2        1 FAD600  -1.0000
     4 O5B         29.8170     5.9330    57.2670 O.3          1 FAD600   0.0000
     5 C5B         29.4230     4.5560    57.5680 C.3          1 FAD600   0.0000
     6 C4B         28.2490     4.6230    58.5560 C.3          1 FAD600   0.0000
     7 O4B         27.7120     3.2870    58.8340 O.3          1 FAD600   0.0000
     8 C3B         28.4820     5.2310    59.9640 C.3          1 FAD600   0.0000
     9 O3B         27.6250     6.3080    60.2120 O.3          1 FAD600   0.0000
    10 C2B         28.4090     4.0410    60.9060 C.3          1 FAD600   0.0000
    11 O2B         27.9350     4.4140    62.1620 O.3          1 FAD600   0.0000
    12 C1B         27.2920     3.2650    60.2420 C.3          1 FAD600   0.0000
    13 N9A         27.2510     1.8440    60.5370 N.pl3        1 FAD600   0.0000
    14 C8A         28.3090     1.0400    60.8570 C.2          1 FAD600   0.0000
    15 N7A         27.9440    -0.2150    61.0250 N.2          1 FAD600   0.0000
    16 C5A         26.5900    -0.2450    60.7930 C.ar         1 FAD600   0.0000
    17 C6A         25.6110    -1.3290    60.8020 C.ar         1 FAD600   0.0000
    18 N6A         25.8480    -2.5900    61.0480 N.pl3        1 FAD600   0.0000
    19 N1A         24.3480    -0.9130    60.4960 N.ar         1 FAD600   0.0000
    20 C2A         24.0020     0.3570    60.2180 C.ar         1 FAD600   0.0000
    21 N3A         24.8450     1.4040    60.1850 N.ar         1 FAD600   0.0000
    22 C4A         26.1150     1.0350    60.4870 C.ar         1 FAD600   0.0000
    23 N1          38.5710    12.4340    54.6840 N.2          1 FAD600   0.0000
    24 C2          38.8950    13.5930    54.1510 C.2          1 FAD600   0.0000
    25 O2          38.6280    13.8860    53.0190 O.2          1 FAD600   0.0000
    26 N3          39.5610    14.6080    54.8910 N.pl3        1 FAD600   0.0000
    27 C4          39.9700    14.3500    56.1750 C.2          1 FAD600   0.0000
    28 O4          40.5610    15.2110    56.7910 O.2          1 FAD600   0.0000
    29 C4X         39.7160    13.0350    56.7190 C.2          1 FAD600   0.0000
    30 N5          40.0810    12.7920    57.9820 N.2          1 FAD600   0.0000
    31 C5X         39.6670    11.6000    58.5090 C.ar         1 FAD600   0.0000
    32 C6          39.9650    11.4040    59.8790 C.ar         1 FAD600   0.0000
    33 C7          39.4540    10.3450    60.5360 C.ar         1 FAD600   0.0000
    34 C7M         39.7510    10.1250    62.0070 C.3          1 FAD600   0.0000
    35 C8          38.6040     9.4010    59.8730 C.ar         1 FAD600   0.0000
    36 C8M         38.0910     8.2090    60.6380 C.3          1 FAD600   0.0000
    37 C9          38.3000     9.5840    58.5170 C.ar         1 FAD600   0.0000
    38 C9A         38.8930    10.6470    57.8380 C.ar         1 FAD600   0.0000
    39 N10         38.5520    10.9440    56.4920 N.pl3        1 FAD600   0.0000
    40 C10         38.9570    12.0810    55.9280 C.2          1 FAD600   0.0000
    41 C1'         37.8720     9.8710    55.7530 C.3          1 FAD600   0.0000
    42 C2'         36.3660    10.1010    55.4940 C.3          1 FAD600   0.0000
    43 O2'         35.7360    10.6230    56.6610 O.3          1 FAD600   0.0000
    44 C3'         35.7920     8.7020    55.2540 C.3          1 FAD600   0.0000
    45 O3'         36.5360     8.0500    54.2510 O.3          1 FAD600   0.0000
    46 C4'         34.3480     8.7910    54.7930 C.3          1 FAD600   0.0000
    47 O4'         33.5090     9.3570    55.8180 O.3          1 FAD600   0.0000
    48 C5'         33.9380     7.3360    54.5030 C.3          1 FAD600   0.0000
    49 O5'         32.4300     7.3330    54.0270 O.3          1 FAD600   0.0000
    50 P           31.5800     6.0790    54.0390 P.3          1 FAD600   0.0000
    51 O1P         30.1890     6.4570    53.5170 O.co2        1 FAD600   0.0000
    52 O2P         32.2230     5.0030    53.4040 O.co2        1 FAD600  -1.0000
    53 O3P         31.5480     5.6070    55.4860 O.3          1 FAD600   0.0000
    54 H5B1        30.1893     4.0630    57.9799 H            1 FAD600   0.0000
    55 H5B2        29.1389     4.0903    56.7299 H            1 FAD600   0.0000
    56 H4B         27.5214     5.1520    58.1193 H            1 FAD600   0.0000
    57 H3B         29.4190     5.5792    59.9905 H            1 FAD600   0.0000
    58 H5          26.6758     5.9983    60.1566 H            1 FAD600   0.0000
    59 H2B         29.2659     3.5275    60.9507 H            1 FAD600   0.0000
    60 H7          27.0181     4.8024    62.0704 H            1 FAD600   0.0000
    61 H1B         26.4020     3.7013    60.3746 H            1 FAD600   0.0000
    62 H8A         29.2496     1.3659    60.9524 H            1 FAD600   0.0000
    63 H6A1        25.0994    -3.2527    61.0278 H            1 FAD600   0.0000
    64 H6A2        26.7781    -2.8925    61.2565 H            1 FAD600   0.0000
    65 H2A         23.0386     0.5372    60.0196 H            1 FAD600   0.0000
    66 H13         39.7301    15.5032    54.4787 H            1 FAD600   0.0000
    67 H14         40.5555    12.0524    60.3595 H            1 FAD600   0.0000
    68 H7M1        39.2894     9.2949    62.3198 H            1 FAD600   0.0000
    69 H7M2        40.7377    10.0267    62.1368 H            1 FAD600   0.0000
    70 H7M3        39.4218    10.9083    62.5343 H            1 FAD600   0.0000
    71 H8M1        37.5163     7.6510    60.0394 H            1 FAD600   0.0000
    72 H8M2        38.8637     7.6631    60.9619 H            1 FAD600   0.0000
    73 H8M3        37.5525     8.5217    61.4205 H            1 FAD600   0.0000
    74 H21         37.6710     8.9650    58.0467 H            1 FAD600   0.0000
    75 H1'1        37.9699     9.0248    56.2768 H            1 FAD600   0.0000
    76 H1'2        38.3260     9.7695    54.8678 H            1 FAD600   0.0000
    77 H2'         36.2189    10.6957    54.7036 H            1 FAD600   0.0000
    78 H25         34.7817    10.3252    56.6861 H            1 FAD600   0.0000
    79 H3'         35.8393     8.1727    56.1011 H            1 FAD600   0.0000
    80 H27         36.9018     8.7280    53.6134 H            1 FAD600   0.0000
    81 H4'         34.2870     9.3381    53.9581 H            1 FAD600   0.0000
    82 H29         32.7994     8.6986    56.0692 H            1 FAD600   0.0000
    83 H5'1        34.0321     6.7860    55.3328 H            1 FAD600   0.0000
    84 H5'2        34.5207     6.9570    53.7840 H            1 FAD600   0.0000
@<TRIPOS>BOND
     1    1    2      ar
     2    1    3      ar
     3    1    4       1
     4    1   53       1
     5    4    5       1
     6    5    6       1
     7    6    7       1
     8    6    8       1
     9    7   12       1
    10    8    9       1
    11    8   10       1
    12   10   11       1
    13   10   12       1
    14   12   13       1
    15   13   14       1
    16   13   22       1
    17   14   15       2
    18   15   16       1
    19   16   17      ar
    20   16   22      ar
    21   17   18       1
    22   17   19      ar
    23   19   20      ar
    24   20   21      ar
    25   21   22      ar
    26   23   24       1
    27   23   40       2
    28   24   25       2
    29   24   26       1
    30   26   27       1
    31   27   28       2
    32   27   29       1
    33   29   30       2
    34   29   40       1
    35   30   31       1
    36   31   32      ar
    37   31   38      ar
    38   32   33      ar
    39   33   34       1
    40   33   35      ar
    41   35   36       1
    42   35   37      ar
    43   37   38      ar
    44   38   39       1
    45   39   40       1
    46   39   41       1
    47   41   42       1
    48   42   43       1
    49   42   44       1
    50   44   45       1
    51   44   46       1
    52   46   47       1
    53   46   48       1
    54   48   49       1
    55   49   50       1
    56   50   51      ar
    57   50   52      ar
    58   50   53       1
    59   48   84       1
    60    5   54       1
    61    5   55       1
    62    6   56       1
    63    8   57       1
    64    9   58       1
    65   10   59       1
    66   11   60       1
    67   12   61       1
    68   14   62       1
    69   18   63       1
    70   18   64       1
    71   20   65       1
    72   26   66       1
    73   32   67       1
    74   34   68       1
    75   34   69       1
    76   34   70       1
    77   36   71       1
    78   36   72       1
    79   36   73       1
    80   37   74       1
    81   41   75       1
    82   41   76       1
    83   42   77       1
    84   43   78       1
    85   44   79       1
    86   45   80       1
    87   46   81       1
    88   47   82       1
    89   48   83       1
@<TRIPOS>SUBSTRUCTURE
     1 FAD600      1 GROUP             4 A     FAD     0 **** FAD A 600
