@<TRIPOS>MOLECULE
3urh_FAD_1_ligand
   84    89     1     0     0
SMALL
NO_CHARGES


@<TRIPOS>ATOM
     1 PA          54.0600    67.2200    17.7310 P.3          1 FAD500   0.0000
     2 O1A         53.3560    67.6670    19.0400 O.co2        1 FAD500   0.0000
     3 O2A         53.6850    67.9770    16.4000 O.co2        1 FAD500  -1.0000
     4 O5B         55.6470    67.4380    18.0720 O.3          1 FAD500   0.0000
     5 C5B         56.8140    66.6940    17.7640 C.3          1 FAD500   0.0000
     6 C4B         57.9910    67.7030    17.6780 C.3          1 FAD500   0.0000
     7 O4B         58.9220    67.4110    16.6310 O.3          1 FAD500   0.0000
     8 C3B         57.6390    69.1740    17.3820 C.3          1 FAD500   0.0000
     9 O3B         57.9990    69.8940    18.5970 O.3          1 FAD500   0.0000
    10 C2B         58.5190    69.5760    16.1630 C.3          1 FAD500   0.0000
    11 O2B         59.2140    70.8100    16.3620 O.3          1 FAD500   0.0000
    12 C1B         59.6500    68.5920    16.2940 C.3          1 FAD500   0.0000
    13 N9A         60.5130    68.2140    15.1520 N.pl3        1 FAD500   0.0000
    14 C8A         60.0970    67.9320    13.8830 C.2          1 FAD500   0.0000
    15 N7A         61.1380    67.5110    13.0920 N.2          1 FAD500   0.0000
    16 C5A         62.2460    67.4850    13.8920 C.ar         1 FAD500   0.0000
    17 C6A         63.6630    67.1160    13.6950 C.ar         1 FAD500   0.0000
    18 N6A         64.0240    66.7110    12.4530 N.pl3        1 FAD500   0.0000
    19 N1A         64.5480    67.2480    14.7360 N.ar         1 FAD500   0.0000
    20 C2A         64.1070    67.6490    15.9540 C.ar         1 FAD500   0.0000
    21 N3A         62.8080    67.9990    16.2340 N.ar         1 FAD500   0.0000
    22 C4A         61.8330    67.9300    15.2490 C.ar         1 FAD500   0.0000
    23 N1          45.0880    66.9990    20.0120 N.2          1 FAD500   0.0000
    24 C2          44.3160    66.6350    21.0450 C.2          1 FAD500   0.0000
    25 O2          44.4670    65.4590    21.3690 O.2          1 FAD500   0.0000
    26 N3          43.4620    67.5010    21.7320 N.pl3        1 FAD500   0.0000
    27 C4          43.2590    68.8250    21.4010 C.2          1 FAD500   0.0000
    28 O4          42.4570    69.6710    21.9500 O.2          1 FAD500   0.0000
    29 C4X         44.0530    69.3440    20.2900 C.2          1 FAD500   0.0000
    30 N5          43.9180    70.6590    19.9060 N.2          1 FAD500   0.0000
    31 C5X         44.6960    71.1340    18.9270 C.ar         1 FAD500   0.0000
    32 C6          44.5850    72.4720    18.5660 C.ar         1 FAD500   0.0000
    33 C7          45.3380    72.9960    17.5270 C.ar         1 FAD500   0.0000
    34 C7M         45.0950    74.4640    17.1920 C.3          1 FAD500   0.0000
    35 C8          46.3370    72.1210    16.8020 C.ar         1 FAD500   0.0000
    36 C8M         47.1530    72.6800    15.6660 C.3          1 FAD500   0.0000
    37 C9          46.4790    70.7650    17.1570 C.ar         1 FAD500   0.0000
    38 C9A         45.6710    70.2370    18.2170 C.ar         1 FAD500   0.0000
    39 N10         45.7740    68.8890    18.6030 N.pl3        1 FAD500   0.0000
    40 C10         45.0020    68.3610    19.6340 C.2          1 FAD500   0.0000
    41 C1'         46.7020    67.9470    17.9110 C.3          1 FAD500   0.0000
    42 C2'         47.9430    67.8150    18.8050 C.3          1 FAD500   0.0000
    43 O2'         48.6970    69.0480    18.8270 O.3          1 FAD500   0.0000
    44 C3'         48.7520    66.6570    18.2340 C.3          1 FAD500   0.0000
    45 O3'         47.8850    65.5110    18.1170 O.3          1 FAD500   0.0000
    46 C4'         49.8980    66.3530    19.1580 C.3          1 FAD500   0.0000
    47 O4'         50.6530    67.5640    19.4640 O.3          1 FAD500   0.0000
    48 C5'         50.7840    65.3190    18.4590 C.3          1 FAD500   0.0000
    49 O5'         51.9300    64.9810    19.3040 O.3          1 FAD500   0.0000
    50 P           53.2720    64.4200    18.5550 P.3          1 FAD500   0.0000
    51 O1P         54.3160    64.1490    19.6710 O.co2        1 FAD500   0.0000
    52 O2P         52.6200    63.4160    17.5210 O.co2        1 FAD500  -1.0000
    53 O3P         53.9070    65.6000    17.5800 O.3          1 FAD500   0.0000
    54 H5B1        56.7002    66.2247    16.8883 H            1 FAD500   0.0000
    55 H5B2        56.9911    66.0212    18.4823 H            1 FAD500   0.0000
    56 H4B         58.4856    67.6737    18.5466 H            1 FAD500   0.0000
    57 H3B         56.6662    69.2781    17.1752 H            1 FAD500   0.0000
    58 H5          58.9754    69.7755    18.7778 H            1 FAD500   0.0000
    59 H2B         58.0397    69.5222    15.2870 H            1 FAD500   0.0000
    60 H7          59.8141    70.7300    17.1579 H            1 FAD500   0.0000
    61 H1B         60.2260    68.8548    17.0680 H            1 FAD500   0.0000
    62 H8A         59.1520    68.0208    13.5683 H            1 FAD500   0.0000
    63 H6A1        64.9715    66.4503    12.2678 H            1 FAD500   0.0000
    64 H6A2        63.3429    66.6729    11.7218 H            1 FAD500   0.0000
    65 H2A         64.7724    67.6930    16.6992 H            1 FAD500   0.0000
    66 H13         42.9632    67.1361    22.5182 H            1 FAD500   0.0000
    67 H14         43.9523    73.0654    19.0635 H            1 FAD500   0.0000
    68 H7M1        45.6869    74.7351    16.4329 H            1 FAD500   0.0000
    69 H7M2        44.1383    74.5924    16.9309 H            1 FAD500   0.0000
    70 H7M3        45.3005    75.0270    17.9925 H            1 FAD500   0.0000
    71 H8M1        47.7561    71.9678    15.3068 H            1 FAD500   0.0000
    72 H8M2        46.5417    72.9962    14.9405 H            1 FAD500   0.0000
    73 H8M3        47.7029    73.4471    15.9965 H            1 FAD500   0.0000
    74 H21         47.1330    70.1801    16.6772 H            1 FAD500   0.0000
    75 H1'1        46.9591    68.3115    17.0160 H            1 FAD500   0.0000
    76 H1'2        46.2645    67.0553    17.7946 H            1 FAD500   0.0000
    77 H2'         47.6556    67.5883    19.7356 H            1 FAD500   0.0000
    78 H25         49.6660    68.8437    18.9657 H            1 FAD500   0.0000
    79 H3'         49.1043    66.9056    17.3318 H            1 FAD500   0.0000
    80 H27         48.1871    64.9411    17.3529 H            1 FAD500   0.0000
    81 H4'         49.5424    65.9626    20.0072 H            1 FAD500   0.0000
    82 H29         51.5998    67.4517    19.1623 H            1 FAD500   0.0000
    83 H5'1        51.1121    65.6966    17.5931 H            1 FAD500   0.0000
    84 H5'2        50.2497    64.4926    18.2811 H            1 FAD500   0.0000
@<TRIPOS>BOND
     1    1    2      ar
     2    1    3      ar
     3    1    4       1
     4    1   53       1
     5    4    5       1
     6    5    6       1
     7    6    7       1
     8    6    8       1
     9    7   12       1
    10    8    9       1
    11    8   10       1
    12   10   11       1
    13   10   12       1
    14   12   13       1
    15   13   14       1
    16   13   22       1
    17   14   15       2
    18   15   16       1
    19   16   17      ar
    20   16   22      ar
    21   17   18       1
    22   17   19      ar
    23   19   20      ar
    24   20   21      ar
    25   21   22      ar
    26   23   24       1
    27   23   40       2
    28   24   25       2
    29   24   26       1
    30   26   27       1
    31   27   28       2
    32   27   29       1
    33   29   30       2
    34   29   40       1
    35   30   31       1
    36   31   32      ar
    37   31   38      ar
    38   32   33      ar
    39   33   34       1
    40   33   35      ar
    41   35   36       1
    42   35   37      ar
    43   37   38      ar
    44   38   39       1
    45   39   40       1
    46   39   41       1
    47   41   42       1
    48   42   43       1
    49   42   44       1
    50   44   45       1
    51   44   46       1
    52   46   47       1
    53   46   48       1
    54   48   49       1
    55   49   50       1
    56   50   51      ar
    57   50   52      ar
    58   50   53       1
    59   48   84       1
    60    5   54       1
    61    5   55       1
    62    6   56       1
    63    8   57       1
    64    9   58       1
    65   10   59       1
    66   11   60       1
    67   12   61       1
    68   14   62       1
    69   18   63       1
    70   18   64       1
    71   20   65       1
    72   26   66       1
    73   32   67       1
    74   34   68       1
    75   34   69       1
    76   34   70       1
    77   36   71       1
    78   36   72       1
    79   36   73       1
    80   37   74       1
    81   41   75       1
    82   41   76       1
    83   42   77       1
    84   43   78       1
    85   44   79       1
    86   45   80       1
    87   46   81       1
    88   47   82       1
    89   48   83       1
@<TRIPOS>SUBSTRUCTURE
     1 FAD500      1 GROUP             4 A     FAD     0 **** FAD A 500
