@<TRIPOS>MOLECULE
2yog_74X_2_ligand
   49    51     1     0     0
SMALL
NO_CHARGES


@<TRIPOS>ATOM
     1 OAC         12.4790     3.4750    29.9720 O.2          1 74X211   0.0000
     2 CAZ         13.6610     3.7530    29.8850 C.2          1 74X211   0.0000
     3 NAR         14.4080     3.2890    28.8230 N.pl3        1 74X211   0.0000
     4 CAY         15.7390     3.5930    28.7260 C.2          1 74X211   0.0000
     5 OAB         16.3750     3.1460    27.7630 O.2          1 74X211   0.0000
     6 CAU         16.3290     4.4240    29.7210 C.2          1 74X211   0.0000
     7 CAA         17.7830     4.8230    29.6670 C.3          1 74X211   0.0000
     8 CAM         15.5890     4.8670    30.7830 C.2          1 74X211   0.0000
     9 NBD         14.2410     4.5300    30.8680 N.pl3        1 74X211   0.0000
    10 CBC         13.4000     4.9630    32.0000 C.3          1 74X211   0.0000
    11 OAS         14.2440     5.2310    33.1410 O.3          1 74X211   0.0000
    12 CAO         12.4830     6.1280    31.7120 C.3          1 74X211   0.0000
    13 CBA         13.2900     7.2380    32.3350 C.3          1 74X211   0.0000
    14 OAD         14.2830     7.6830    31.3840 O.3          1 74X211   0.0000
    15 CBB         13.9590     6.5670    33.5610 C.3          1 74X211   0.0000
    16 CAN         13.0830     6.5540    34.8720 C.3          1 74X211   0.0000
    17 NAP         13.1120     7.9530    35.3080 N.2          1 74X211   0.0000
    18 CAT         12.1570     8.8410    35.0000 C.2          1 74X211   0.0000
    19 SAE         10.6220     8.3740    34.3390 S.3          1 74X211   0.0000
    20 NAQ         12.3670    10.1040    35.3690 N.pl3        1 74X211   0.0000
    21 CAV         11.5470    11.1170    35.0830 C.ar         1 74X211   0.0000
    22 CAL         12.0010    11.9990    34.1030 C.ar         1 74X211   0.0000
    23 CAJ         10.3260    11.3510    35.7060 C.ar         1 74X211   0.0000
    24 CAK          9.5710    12.4690    35.3190 C.ar         1 74X211   0.0000
    25 CAW         10.0440    13.3400    34.3310 C.ar         1 74X211   0.0000
    26 CLA          9.0770    14.7140    33.9260 Cl           1 74X211   0.0000
    27 CAX         11.2700    13.1150    33.7000 C.ar         1 74X211   0.0000
    28 CBE         11.8280    14.0750    32.6070 C.3          1 74X211   0.0000
    29 FAG         10.9830    14.2640    31.6190 F            1 74X211   0.0000
    30 FAH         12.0140    15.2680    33.1150 F            1 74X211   0.0000
    31 FAF         12.9770    13.6270    32.1130 F            1 74X211   0.0000
    32 HAR         13.9744     2.7266    28.1189 H            1 74X211   0.0000
    33 HAA1        17.9986     5.4039    30.4519 H            1 74X211   0.0000
    34 HAA2        18.3548     4.0030    29.6921 H            1 74X211   0.0000
    35 HAA3        17.9593     5.3266    28.8212 H            1 74X211   0.0000
    36 HAM         16.0134     5.4288    31.4931 H            1 74X211   0.0000
    37 HBC         12.8179     4.1874    32.2439 H            1 74X211   0.0000
    38 HAO1        11.5926     6.0203    32.1543 H            1 74X211   0.0000
    39 HAO2        12.3529     6.2668    30.7303 H            1 74X211   0.0000
    40 HBA         12.7004     7.9945    32.6179 H            1 74X211   0.0000
    41 HAD         13.9366     7.5530    30.4550 H            1 74X211   0.0000
    42 HBB         14.8213     7.0351    33.7541 H            1 74X211   0.0000
    43 HAN1        13.4832     5.9541    35.5648 H            1 74X211   0.0000
    44 HAN2        12.1479     6.2589    34.6756 H            1 74X211   0.0000
    45 HAQ         13.1933    10.3059    35.8947 H            1 74X211   0.0000
    46 HAL         12.8863    11.8238    33.6723 H            1 74X211   0.0000
    47 HAJ          9.9916    10.7332    36.4177 H            1 74X211   0.0000
    48 HAK          8.6874    12.6447    35.7530 H            1 74X211   0.0000
    49 HAE          9.9376     9.0706    34.1236 H            1 74X211   0.0000
@<TRIPOS>BOND
     1    1    2       2
     2    2    3       1
     3    2    9       1
     4    3    4       1
     5    4    5       2
     6    4    6       1
     7    6    7       1
     8    6    8       2
     9    8    9       1
    10    9   10       1
    11   10   11       1
    12   10   12       1
    13   11   15       1
    14   12   13       1
    15   13   14       1
    16   13   15       1
    17   15   16       1
    18   16   17       1
    19   17   18       2
    20   18   19       1
    21   18   20       1
    22   20   21       1
    23   21   22      ar
    24   21   23      ar
    25   22   27      ar
    26   23   24      ar
    27   24   25      ar
    28   25   26       1
    29   25   27      ar
    30   27   28       1
    31   28   29       1
    32   28   30       1
    33   28   31       1
    34    3   32       1
    35    7   33       1
    36    7   34       1
    37    7   35       1
    38    8   36       1
    39   10   37       1
    40   12   38       1
    41   12   39       1
    42   13   40       1
    43   14   41       1
    44   15   42       1
    45   16   43       1
    46   16   44       1
    47   24   48       1
    48   20   45       1
    49   22   46       1
    50   23   47       1
    51   19   49       1
@<TRIPOS>SUBSTRUCTURE
     1 74X211      1 GROUP             4 B     74X     0 **** 74X B 211
