@<TRIPOS>MOLECULE
3ijr_NAD_7_ligand
   70    74     1     0     0
SMALL
NO_CHARGES


@<TRIPOS>ATOM
     1 PA         -76.3250     7.7980   -19.0450 P.3          1 NAD301   0.0000
     2 O1A        -76.6980     6.9270   -17.8960 O.co2        1 NAD301   0.0000
     3 O2A        -76.2430     6.9970   -20.2800 O.co2        1 NAD301  -1.0000
     4 O5B        -74.9420     8.5300   -18.7350 O.3          1 NAD301   0.0000
     5 C5B        -74.5370     8.8180   -17.4220 C.3          1 NAD301   0.0000
     6 C4B        -73.2460     8.0800   -17.1470 C.3          1 NAD301   0.0000
     7 O4B        -72.5980     8.5500   -15.9870 O.3          1 NAD301   0.0000
     8 C3B        -73.4650     6.5910   -16.9420 C.3          1 NAD301   0.0000
     9 O3B        -73.2590     5.8900   -18.1490 O.3          1 NAD301   0.0000
    10 C2B        -72.4520     6.2190   -15.8800 C.3          1 NAD301   0.0000
    11 O2B        -71.4920     5.3200   -16.3640 O.3          1 NAD301   0.0000
    12 C1B        -71.7710     7.5230   -15.5000 C.3          1 NAD301   0.0000
    13 N9A        -71.6030     7.5400   -14.0400 N.pl3        1 NAD301   0.0000
    14 C8A        -72.5760     7.6820   -13.0770 C.2          1 NAD301   0.0000
    15 N7A        -71.9820     7.6190   -11.8620 N.2          1 NAD301   0.0000
    16 C5A        -70.6580     7.4120   -12.0270 C.ar         1 NAD301   0.0000
    17 C6A        -69.5960     7.2660   -11.1450 C.ar         1 NAD301   0.0000
    18 N6A        -69.7430     7.4430    -9.8310 N.pl3        1 NAD301   0.0000
    19 N1A        -68.3350     7.0720   -11.6470 N.ar         1 NAD301   0.0000
    20 C2A        -68.1170     7.0250   -13.0050 C.ar         1 NAD301   0.0000
    21 N3A        -69.1680     7.1680   -13.8770 N.ar         1 NAD301   0.0000
    22 C4A        -70.4140     7.3600   -13.3990 C.ar         1 NAD301   0.0000
    23 O3         -77.4600     8.9400   -19.2050 O.3          1 NAD301   0.0000
    24 PN         -77.2880    10.2790   -20.0920 P.3          1 NAD301   0.0000
    25 O1N        -78.6370    10.9030   -20.1460 O.co2        1 NAD301   0.0000
    26 O2N        -76.5770     9.9270   -21.3440 O.co2        1 NAD301  -1.0000
    27 O5D        -76.3230    11.1880   -19.2170 O.3          1 NAD301   0.0000
    28 C5D        -75.2590    11.9350   -19.7760 C.3          1 NAD301   0.0000
    29 C4D        -75.3340    13.4160   -19.3970 C.3          1 NAD301   0.0000
    30 O4D        -76.5040    14.0130   -19.9320 O.3          1 NAD301   0.0000
    31 C3D        -75.3910    13.6710   -17.8930 C.3          1 NAD301   0.0000
    32 O3D        -74.4430    14.6390   -17.5280 O.3          1 NAD301   0.0000
    33 C2D        -76.7570    14.2430   -17.6180 C.3          1 NAD301   0.0000
    34 O2D        -76.6770    15.1370   -16.5280 O.3          1 NAD301   0.0000
    35 C1D        -77.0320    14.8990   -18.9590 C.3          1 NAD301   0.0000
    36 N1N        -78.4440    15.1610   -19.2470 N.ar         1 NAD301   1.0000
    37 C2N        -79.2780    14.1330   -19.5800 C.ar         1 NAD301   0.0000
    38 C3N        -80.6050    14.3960   -19.8670 C.ar         1 NAD301   0.0000
    39 C7N        -81.5080    13.2780   -20.2660 C.2          1 NAD301   0.0000
    40 O7N        -82.8960    13.5007   -20.3775 O.2          1 NAD301   0.0000
    41 N7N        -80.9914    12.0858   -20.4995 N.am         1 NAD301   0.0000
    42 C4N        -81.0770    15.7010   -19.8190 C.ar         1 NAD301   0.0000
    43 C5N        -80.2070    16.7330   -19.4970 C.ar         1 NAD301   0.0000
    44 C6N        -78.8810    16.4600   -19.2050 C.ar         1 NAD301   0.0000
    45 H5B1       -75.2410     8.5182   -16.7781 H            1 NAD301   0.0000
    46 H5B2       -74.3911     9.8022   -17.3219 H            1 NAD301   0.0000
    47 H4B        -72.6339     8.2074   -17.9275 H            1 NAD301   0.0000
    48 H3B        -74.3914     6.4250   -16.6040 H            1 NAD301   0.0000
    49 H5         -72.2986     5.6201   -18.2180 H            1 NAD301   0.0000
    50 H2B        -72.9162     5.8298   -15.0844 H            1 NAD301   0.0000
    51 H7         -71.9444     4.4829   -16.6715 H            1 NAD301   0.0000
    52 H1B        -70.8753     7.5752   -15.9417 H            1 NAD301   0.0000
    53 H8A        -73.5534     7.8097   -13.2457 H            1 NAD301   0.0000
    54 H6A1       -68.9589     7.3308    -9.2206 H            1 NAD301   0.0000
    55 H6A2       -70.6373     7.6879    -9.4564 H            1 NAD301   0.0000
    56 H2A        -67.1915     6.8864   -13.3574 H            1 NAD301   0.0000
    57 H5D1       -75.2971    11.8547   -20.7720 H            1 NAD301   0.0000
    58 H5D2       -74.3931    11.5607   -19.4443 H            1 NAD301   0.0000
    59 H4D        -74.5341    13.8844   -19.7721 H            1 NAD301   0.0000
    60 H3D        -75.2499    12.8231   -17.3819 H            1 NAD301   0.0000
    61 H17        -74.3014    15.2708   -18.2901 H            1 NAD301   0.0000
    62 H2D        -77.4180    13.5154   -17.4347 H            1 NAD301   0.0000
    63 H19        -76.3495    14.6483   -15.7194 H            1 NAD301   0.0000
    64 H1D        -76.5292    15.7623   -19.0037 H            1 NAD301   0.0000
    65 H2N        -78.9316    13.1956   -19.6162 H            1 NAD301   0.0000
    66 H7N1       -81.5873    11.3232   -20.7511 H            1 NAD301   0.0000
    67 H7N2       -80.0041    11.9453   -20.4246 H            1 NAD301   0.0000
    68 H4N        -82.0380    15.8959   -20.0153 H            1 NAD301   0.0000
    69 H5N        -80.5383    17.6763   -19.4757 H            1 NAD301   0.0000
    70 H6N        -78.2514    17.1995   -18.9670 H            1 NAD301   0.0000
@<TRIPOS>BOND
     1    1    2      ar
     2    1    3      ar
     3    1    4       1
     4    1   23       1
     5    4    5       1
     6    5    6       1
     7    6    7       1
     8    6    8       1
     9    7   12       1
    10    8    9       1
    11    8   10       1
    12   10   11       1
    13   10   12       1
    14   12   13       1
    15   13   14       1
    16   13   22       1
    17   14   15       2
    18   15   16       1
    19   16   17      ar
    20   16   22      ar
    21   17   18       1
    22   17   19      ar
    23   19   20      ar
    24   20   21      ar
    25   21   22      ar
    26   23   24       1
    27   24   25      ar
    28   24   26      ar
    29   24   27       1
    30   27   28       1
    31   28   29       1
    32   29   30       1
    33   29   31       1
    34   30   35       1
    35   31   32       1
    36   31   33       1
    37   33   34       1
    38   33   35       1
    39   35   36       1
    40   36   37      ar
    41   36   44      ar
    42   37   38      ar
    43   38   39       1
    44   38   42      ar
    45   39   40       2
    46   39   41      am
    47   42   43      ar
    48   43   44      ar
    49   44   70       1
    50    5   45       1
    51    5   46       1
    52    6   47       1
    53    8   48       1
    54    9   49       1
    55   10   50       1
    56   11   51       1
    57   12   52       1
    58   14   53       1
    59   18   54       1
    60   18   55       1
    61   20   56       1
    62   43   69       1
    63   28   57       1
    64   28   58       1
    65   29   59       1
    66   31   60       1
    67   32   61       1
    68   33   62       1
    69   34   63       1
    70   35   64       1
    71   37   65       1
    72   41   66       1
    73   41   67       1
    74   42   68       1
@<TRIPOS>SUBSTRUCTURE
     1 NAD301      1 GROUP             4 G     NAD     0 **** NAD G 301
