@<TRIPOS>MOLECULE
3ze8_SBC_2_ligand
   32    31     1     0     0
SMALL
NO_CHARGES


@<TRIPOS>ATOM
     1 C1         -12.0630   -16.5920    37.1760 C.3          1 SBC1285   0.0000
     2 C2         -11.5240   -16.5310    38.5870 C.3          1 SBC1285   0.0000
     3 C3         -11.8400   -15.1820    39.2190 C.3          1 SBC1285   0.0000
     4 C4         -11.5720   -15.2110    40.7160 C.3          1 SBC1285   0.0000
     5 C5         -12.6370   -14.4160    41.4600 C.3          1 SBC1285   0.0000
     6 C6         -12.0950   -13.1010    42.0040 C.3          1 SBC1285   0.0000
     7 C8         -12.5970   -11.2790    43.6780 C.3          1 SBC1285   0.0000
     8 C9         -13.7070   -10.4950    44.3740 C.3          1 SBC1285   0.0000
     9 C10        -13.1590    -9.5510    45.4390 C.3          1 SBC1285   0.0000
    10 C7         -13.1840   -12.3500    42.7620 C.3          1 SBC1285   0.0000
    11 H1         -11.8478   -17.4825    36.7752 H            1 SBC1285   0.0000
    12 H2         -13.0547   -16.4646    37.1922 H            1 SBC1285   0.0000
    13 H3         -11.6430   -15.8692    36.6272 H            1 SBC1285   0.0000
    14 H4         -10.5327   -16.6611    38.5668 H            1 SBC1285   0.0000
    15 H5         -11.9444   -17.2565    39.1318 H            1 SBC1285   0.0000
    16 H6         -12.8034   -14.9642    39.0625 H            1 SBC1285   0.0000
    17 H7         -11.2667   -14.4798    38.7968 H            1 SBC1285   0.0000
    18 H8         -10.6741   -14.8103    40.8981 H            1 SBC1285   0.0000
    19 H9         -11.5850   -16.1587    41.0350 H            1 SBC1285   0.0000
    20 H10        -12.9751   -14.9659    42.2237 H            1 SBC1285   0.0000
    21 H11        -13.3899   -14.2192    40.8320 H            1 SBC1285   0.0000
    22 H12        -11.7743   -12.5369    41.2431 H            1 SBC1285   0.0000
    23 H13        -11.3329   -13.2898    42.6233 H            1 SBC1285   0.0000
    24 H14        -12.0221   -11.7174    44.3689 H            1 SBC1285   0.0000
    25 H15        -12.0426   -10.6496    43.1336 H            1 SBC1285   0.0000
    26 H16        -14.3353   -11.1409    44.8076 H            1 SBC1285   0.0000
    27 H17        -14.2007    -9.9581    43.6899 H            1 SBC1285   0.0000
    28 H18        -13.9156    -9.0585    45.8691 H            1 SBC1285   0.0000
    29 H19        -12.6683   -10.0792    46.1320 H            1 SBC1285   0.0000
    30 H20        -12.5337    -8.8963    45.0143 H            1 SBC1285   0.0000
    31 H21        -13.7020   -13.0019    43.3158 H            1 SBC1285   0.0000
    32 H22        -13.7956   -11.9129    42.1025 H            1 SBC1285   0.0000
@<TRIPOS>BOND
     1    1    2       1
     2    2    3       1
     3    3    4       1
     4    4    5       1
     5    5    6       1
     6    6   10       1
     7    7    8       1
     8    7   10       1
     9    8    9       1
    10    1   11       1
    11    1   12       1
    12    1   13       1
    13    2   14       1
    14    2   15       1
    15    3   16       1
    16    3   17       1
    17    4   18       1
    18    4   19       1
    19    5   20       1
    20    5   21       1
    21    6   22       1
    22    6   23       1
    23    7   24       1
    24    7   25       1
    25    8   26       1
    26    8   27       1
    27    9   28       1
    28    9   29       1
    29    9   30       1
    30   10   31       1
    31   10   32       1
@<TRIPOS>SUBSTRUCTURE
     1 SBC1285     1 GROUP             4 A     SBC     0 **** SBC A1285
