@<TRIPOS>MOLECULE
1uay_ADN_1_ligand
   32    34     1     0     0
SMALL
NO_CHARGES


@<TRIPOS>ATOM
     1 O5'         29.6080     4.9170     6.2710 O.3          1 ADN1001   0.0000
     2 C5'         29.2350     3.8800     5.3600 C.3          1 ADN1001   0.0000
     3 C4'         28.5900     4.6010     4.1530 C.3          1 ADN1001   0.0000
     4 O4'         29.7850     5.3360     3.7300 O.3          1 ADN1001   0.0000
     5 C3'         28.4490     3.5230     3.0630 C.3          1 ADN1001   0.0000
     6 O3'         27.0740     3.6350     2.6300 O.3          1 ADN1001   0.0000
     7 C2'         29.4240     3.8810     1.9200 C.3          1 ADN1001   0.0000
     8 O2'         28.9660     3.6490     0.5880 O.3          1 ADN1001   0.0000
     9 C1'         29.7950     5.3160     2.3210 C.3          1 ADN1001   0.0000
    10 N9          31.0720     5.8520     1.8160 N.pl3        1 ADN1001   0.0000
    11 C8          32.3590     5.2780     1.9900 C.2          1 ADN1001   0.0000
    12 N7          33.3390     5.9600     1.4660 N.2          1 ADN1001   0.0000
    13 C5          32.6990     7.0700     0.9070 C.ar         1 ADN1001   0.0000
    14 C6          33.1710     8.2430     0.1750 C.ar         1 ADN1001   0.0000
    15 N6          34.4610     8.4440    -0.1050 N.pl3        1 ADN1001   0.0000
    16 N1          32.2260     9.1830    -0.2490 N.ar         1 ADN1001   0.0000
    17 C2          30.8900     9.0030     0.0210 C.ar         1 ADN1001   0.0000
    18 N3          30.3360     7.9420     0.7040 N.ar         1 ADN1001   0.0000
    19 C4          31.2950     7.0170     1.1130 C.ar         1 ADN1001   0.0000
    20 H5'         28.7938     5.4292     6.5444 H            1 ADN1001   0.0000
    21 H5'1        28.5782     3.2589     5.7876 H            1 ADN1001   0.0000
    22 H5'2        30.0408     3.3642     5.0690 H            1 ADN1001   0.0000
    23 H4'         27.7756     5.1486     4.3451 H            1 ADN1001   0.0000
    24 H3'         28.6397     2.6120     3.4288 H            1 ADN1001   0.0000
    25 H6          26.9111     4.5544     2.2720 H            1 ADN1001   0.0000
    26 H2'         30.2426     3.3212     2.0487 H            1 ADN1001   0.0000
    27 H8          28.5037     4.4676     0.2472 H            1 ADN1001   0.0000
    28 H1'         29.0642     5.9198     2.0027 H            1 ADN1001   0.0000
    29 H10         32.5028     4.4166     2.4771 H            1 ADN1001   0.0000
    30 H11         34.7419     9.2609    -0.6087 H            1 ADN1001   0.0000
    31 H12         35.1462     7.7776     0.1890 H            1 ADN1001   0.0000
    32 H13         30.2618     9.7076    -0.3090 H            1 ADN1001   0.0000
@<TRIPOS>BOND
     1    1    2       1
     2    2    3       1
     3    3    4       1
     4    3    5       1
     5    4    9       1
     6    5    6       1
     7    5    7       1
     8    7    8       1
     9    7    9       1
    10    9   10       1
    11   10   11       1
    12   10   19       1
    13   11   12       2
    14   12   13       1
    15   13   14      ar
    16   13   19      ar
    17   14   15       1
    18   14   16      ar
    19   16   17      ar
    20   17   18      ar
    21   18   19      ar
    22    1   20       1
    23    2   21       1
    24    2   22       1
    25    3   23       1
    26    5   24       1
    27    6   25       1
    28    7   26       1
    29    8   27       1
    30    9   28       1
    31   11   29       1
    32   15   30       1
    33   15   31       1
    34   17   32       1
@<TRIPOS>SUBSTRUCTURE
     1 ADN1001     1 GROUP             4 A     ADN     0 **** ADN A1001
