@<TRIPOS>MOLECULE
2dub_CO8_2_ligand
  103   105     1     0     0
SMALL
NO_CHARGES


@<TRIPOS>ATOM
     1 N1A         96.4490   119.8000   148.8490 N.ar         1 CO8300   0.0000
     2 C2A         97.6060   120.4650   148.9140 C.ar         1 CO8300   0.0000
     3 N3A         97.7910   121.7840   149.0480 N.ar         1 CO8300   0.0000
     4 C4A         96.5740   122.4780   149.1220 C.ar         1 CO8300   0.0000
     5 C5A         95.3150   121.9100   149.0640 C.ar         1 CO8300   0.0000
     6 C6A         95.2680   120.4920   148.9210 C.ar         1 CO8300   0.0000
     7 N6A         94.1230   119.8170   148.8590 N.pl3        1 CO8300   0.0000
     8 N7A         94.3300   122.8590   149.1620 N.2          1 CO8300   0.0000
     9 C8A         94.9910   123.9950   149.2770 C.2          1 CO8300   0.0000
    10 N9A         96.3700   123.8410   149.2630 N.pl3        1 CO8300   0.0000
    11 C1B         97.4250   124.8820   149.4140 C.3          1 CO8300   0.0000
    12 C2B         97.5590   125.6540   148.0770 C.3          1 CO8300   0.0000
    13 O2B         98.3820   124.9280   147.1290 O.3          1 CO8300   0.0000
    14 C3B         98.2730   126.9540   148.5270 C.3          1 CO8300   0.0000
    15 O3B         99.6790   126.7000   148.7860 O.3          1 CO8300   0.0000
    16 P3B        100.7440   127.3350   147.8670 P.3          1 CO8300   0.0000
    17 O7A        101.1040   126.3200   146.7620 O.co2        1 CO8300   0.0000
    18 O8A        100.2020   128.6620   147.2480 O.co2        1 CO8300  -1.0000
    19 O9A        102.0070   127.6290   148.7070 O.co2        1 CO8300  -1.0000
    20 C4B         97.5620   127.1710   149.8800 C.3          1 CO8300   0.0000
    21 O4B         97.0480   125.9150   150.3510 O.3          1 CO8300   0.0000
    22 C5B         96.4320   128.1820   149.7210 C.3          1 CO8300   0.0000
    23 O5B         95.3820   127.7160   148.8820 O.3          1 CO8300   0.0000
    24 P1A         94.7500   128.6370   147.8170 P.3          1 CO8300   0.0000
    25 O1A         95.7600   129.7240   147.3620 O.co2        1 CO8300   0.0000
    26 O2A         94.3230   127.7750   146.6030 O.co2        1 CO8300  -1.0000
    27 O3A         93.5280   129.3330   148.4400 O.3          1 CO8300   0.0000
    28 P2A         92.2920   129.9250   147.7340 P.3          1 CO8300   0.0000
    29 O4A         91.5140   130.8370   148.7390 O.co2        1 CO8300   0.0000
    30 O5A         92.7410   130.7590   146.5050 O.co2        1 CO8300  -1.0000
    31 O6A         91.3800   128.7630   147.2690 O.3          1 CO8300   0.0000
    32 CBP         90.3310   126.5500   147.7250 C.3          1 CO8300   0.0000
    33 CCP         90.7370   127.9290   148.2470 C.3          1 CO8300   0.0000
    34 CDP         89.1420   126.7440   146.7660 C.3          1 CO8300   0.0000
    35 CEP         89.9020   125.6700   148.9170 C.3          1 CO8300   0.0000
    36 CAP         91.5490   125.9230   146.9880 C.3          1 CO8300   0.0000
    37 OAP         92.6920   125.8470   147.8630 O.3          1 CO8300   0.0000
    38 C9P         91.3470   124.4880   146.4510 C.2          1 CO8300   0.0000
    39 O9P         90.5160   124.2540   145.5650 O.2          1 CO8300   0.0000
    40 N8P         92.1870   123.4780   146.9920 N.am         1 CO8300   0.0000
    41 C7P         92.1770   122.1280   146.5580 C.3          1 CO8300   0.0000
    42 C6P         90.8850   121.4230   146.9150 C.3          1 CO8300   0.0000
    43 C5P         90.8110   120.0320   146.3360 C.2          1 CO8300   0.0000
    44 O5P         90.9160   119.8160   145.1180 O.2          1 CO8300   0.0000
    45 N4P         90.6000   119.0320   147.3390 N.am         1 CO8300   0.0000
    46 C3P         90.4730   117.6530   147.0370 C.3          1 CO8300   0.0000
    47 C2P         91.4930   116.8260   147.7910 C.3          1 CO8300   0.0000
    48 S1P         91.7650   115.1520   147.0950 S.3          1 CO8300   0.0000
    49 C1'         91.0010   114.0310   148.2560 C.2          1 CO8300   0.0000
    50 O1'         90.8370   114.4410   149.4050 O.2          1 CO8300   0.0000
    51 C2'         90.7760   112.5660   147.9450 C.3          1 CO8300   0.0000
    52 C3'         90.0240   111.6460   148.8820 C.3          1 CO8300   0.0000
    53 C4'         90.6500   110.9400   150.0570 C.3          1 CO8300   0.0000
    54 C5'         91.7520   109.9070   149.9620 C.3          1 CO8300   0.0000
    55 C6'         92.7000   109.5630   151.0920 C.3          1 CO8300   0.0000
    56 C7'         93.6290   108.3670   151.1120 C.3          1 CO8300   0.0000
    57 C8'         92.9460   107.1540   151.6670 C.3          1 CO8300   0.0000
    58 H2A         98.4353   119.9093   148.8554 H            1 CO8300   0.0000
    59 H6A1        93.2516   120.3049   148.9099 H            1 CO8300   0.0000
    60 H6A2        94.1339   118.8218   148.7615 H            1 CO8300   0.0000
    61 H8A         94.5406   124.8834   149.3659 H            1 CO8300   0.0000
    62 H1B         98.2974   124.4682   149.6739 H            1 CO8300   0.0000
    63 H2B         96.6598   125.8558   147.6889 H            1 CO8300   0.0000
    64 H7          99.1745   125.4850   146.8805 H            1 CO8300   0.0000
    65 H3B         98.1295   127.7120   147.8908 H            1 CO8300   0.0000
    66 H4B         98.2230   127.5222   150.5431 H            1 CO8300   0.0000
    67 H5B1        96.8077   129.0200   149.3253 H            1 CO8300   0.0000
    68 H5B2        96.0531   128.3809   150.6248 H            1 CO8300   0.0000
    69 HCP1        89.9138   128.3982   148.5668 H            1 CO8300   0.0000
    70 HCP2        91.3668   127.8014   149.0132 H            1 CO8300   0.0000
    71 HDP1        88.8542   125.8558   146.4080 H            1 CO8300   0.0000
    72 HDP2        88.3817   127.1669   147.2590 H            1 CO8300   0.0000
    73 HDP3        89.4180   127.3353   146.0082 H            1 CO8300   0.0000
    74 HEP1        89.6346   124.7656   148.5845 H            1 CO8300   0.0000
    75 HEP2        90.6662   125.5779   149.5554 H            1 CO8300   0.0000
    76 HEP3        89.1271   126.0960   149.3839 H            1 CO8300   0.0000
    77 HAP         91.7852   126.5143   146.2169 H            1 CO8300   0.0000
    78 H21         93.4448   126.3787   147.4750 H            1 CO8300   0.0000
    79 H8P         92.8220   123.7338   147.7209 H            1 CO8300   0.0000
    80 H7P1        92.9380   121.6447   146.9908 H            1 CO8300   0.0000
    81 H7P2        92.2912   122.1080   145.5647 H            1 CO8300   0.0000
    82 H6P1        90.1183   121.9592   146.5620 H            1 CO8300   0.0000
    83 H6P2        90.8176   121.3605   147.9108 H            1 CO8300   0.0000
    84 H4P         90.5396   119.3193   148.2949 H            1 CO8300   0.0000
    85 H3P1        90.6089   117.5211   146.0551 H            1 CO8300   0.0000
    86 H3P2        89.5551   117.3476   147.2904 H            1 CO8300   0.0000
    87 H2P1        91.1795   116.7260   148.7353 H            1 CO8300   0.0000
    88 H2P2        92.3646   117.3160   147.7793 H            1 CO8300   0.0000
    89 H2'1        91.6840   112.1634   147.8287 H            1 CO8300   0.0000
    90 H2'2        90.2851   112.5384   147.0742 H            1 CO8300   0.0000
    91 H3'1        89.6432   110.9241   148.3043 H            1 CO8300   0.0000
    92 H3'2        89.2803   112.1960   149.2619 H            1 CO8300   0.0000
    93 H4'1        89.8949   110.4820   150.5261 H            1 CO8300   0.0000
    94 H4'2        91.0142   111.6655   150.6409 H            1 CO8300   0.0000
    95 H5'1        92.3328   110.2014   149.2030 H            1 CO8300   0.0000
    96 H5'2        91.2976   109.0495   149.7208 H            1 CO8300   0.0000
    97 H6'1        92.1238   109.4668   151.9036 H            1 CO8300   0.0000
    98 H6'2        93.2919   110.3623   151.1963 H            1 CO8300   0.0000
    99 H7'1        94.4236   108.5816   151.6800 H            1 CO8300   0.0000
   100 H7'2        93.9295   108.1726   150.1782 H            1 CO8300   0.0000
   101 H8'1        93.5833   106.3834   151.6671 H            1 CO8300   0.0000
   102 H8'2        92.6465   107.3391   152.6030 H            1 CO8300   0.0000
   103 H8'3        92.1524   106.9301   151.1012 H            1 CO8300   0.0000
@<TRIPOS>BOND
     1    1    2      ar
     2    1    6      ar
     3    2    3      ar
     4    3    4      ar
     5    4    5      ar
     6    4   10       1
     7    5    6      ar
     8    5    8       1
     9    6    7       1
    10    8    9       2
    11    9   10       1
    12   10   11       1
    13   11   12       1
    14   11   21       1
    15   12   13       1
    16   12   14       1
    17   14   15       1
    18   14   20       1
    19   15   16       1
    20   16   17      ar
    21   16   18      ar
    22   16   19      ar
    23   20   21       1
    24   20   22       1
    25   22   23       1
    26   23   24       1
    27   24   25      ar
    28   24   26      ar
    29   24   27       1
    30   27   28       1
    31   28   29      ar
    32   28   30      ar
    33   28   31       1
    34   31   33       1
    35   32   33       1
    36   32   34       1
    37   32   35       1
    38   32   36       1
    39   36   37       1
    40   36   38       1
    41   38   39       2
    42   38   40      am
    43   40   41       1
    44   41   42       1
    45   42   43       1
    46   43   44       2
    47   43   45      am
    48   45   46       1
    49   46   47       1
    50   47   48       1
    51   48   49       1
    52   49   50       2
    53   49   51       1
    54   51   52       1
    55   52   53       1
    56   53   54       1
    57   54   55       1
    58   55   56       1
    59   56   57       1
    60    2   58       1
    61    7   59       1
    62    7   60       1
    63    9   61       1
    64   11   62       1
    65   12   63       1
    66   13   64       1
    67   14   65       1
    68   57  103       1
    69   57  102       1
    70   20   66       1
    71   22   67       1
    72   22   68       1
    73   57  101       1
    74   56  100       1
    75   33   69       1
    76   33   70       1
    77   34   71       1
    78   34   72       1
    79   34   73       1
    80   35   74       1
    81   35   75       1
    82   35   76       1
    83   36   77       1
    84   37   78       1
    85   40   79       1
    86   41   80       1
    87   41   81       1
    88   42   82       1
    89   42   83       1
    90   45   84       1
    91   46   85       1
    92   46   86       1
    93   47   87       1
    94   47   88       1
    95   51   89       1
    96   51   90       1
    97   52   91       1
    98   52   92       1
    99   53   93       1
   100   53   94       1
   101   54   95       1
   102   54   96       1
   103   55   97       1
   104   55   98       1
   105   56   99       1
@<TRIPOS>SUBSTRUCTURE
     1 CO8300      1 GROUP             4 B     CO8     0 **** CO8 B 300
