@<TRIPOS>MOLECULE
4ava_ACO_1_ligand
   85    87     1     0     0
SMALL
NO_CHARGES


@<TRIPOS>ATOM
     1 N1A         66.2390    72.9600    20.0060 N.ar         1 ACO1334   0.0000
     2 C2A         64.9490    73.2070    19.7150 C.ar         1 ACO1334   0.0000
     3 N3A         64.0540    72.2090    19.5820 N.ar         1 ACO1334   0.0000
     4 C4A         64.4460    70.9100    19.7210 C.ar         1 ACO1334   0.0000
     5 C5A         65.7780    70.6310    20.0080 C.ar         1 ACO1334   0.0000
     6 C6A         66.6820    71.6900    20.1370 C.ar         1 ACO1334   0.0000
     7 N6A         68.1190    71.4180    20.4500 N.pl3        1 ACO1334   0.0000
     8 N7A         65.8870    69.2830    20.1280 N.2          1 ACO1334   0.0000
     9 C8A         64.6990    68.7110    19.8780 C.2          1 ACO1334   0.0000
    10 N9A         63.8220    69.6990    19.6500 N.pl3        1 ACO1334   0.0000
    11 C1B         62.4000    69.5360    19.3560 C.3          1 ACO1334   0.0000
    12 C2B         62.1360    68.7520    18.1010 C.3          1 ACO1334   0.0000
    13 O2B         62.3260    69.5660    17.0070 O.3          1 ACO1334   0.0000
    14 C3B         60.7150    68.4000    18.2680 C.3          1 ACO1334   0.0000
    15 O3B         59.9270    69.5180    17.9910 O.3          1 ACO1334   0.0000
    16 P3B         58.8560    69.5690    16.8360 P.3          1 ACO1334   0.0000
    17 O7A         57.4790    69.3550    17.3640 O.co2        1 ACO1334   0.0000
    18 O8A         59.0240    70.9390    16.2560 O.co2        1 ACO1334  -1.0000
    19 O9A         59.1270    68.5180    15.8080 O.co2        1 ACO1334  -1.0000
    20 C4B         60.6200    68.1100    19.7290 C.3          1 ACO1334   0.0000
    21 O4B         61.7250    68.8200    20.3690 O.3          1 ACO1334   0.0000
    22 C5B         60.7530    66.6760    20.0820 C.3          1 ACO1334   0.0000
    23 O5B         61.7390    66.0310    19.3350 O.3          1 ACO1334   0.0000
    24 P1A         61.8650    64.4310    19.2560 P.3          1 ACO1334   0.0000
    25 O1A         60.4720    63.8710    19.0800 O.co2        1 ACO1334   0.0000
    26 O2A         62.9680    64.1760    18.2560 O.co2        1 ACO1334  -1.0000
    27 O3A         62.4630    64.1040    20.6910 O.3          1 ACO1334   0.0000
    28 P2A         63.0520    62.7750    21.2360 P.3          1 ACO1334   0.0000
    29 O4A         62.7620    61.6200    20.3000 O.co2        1 ACO1334   0.0000
    30 O5A         64.5120    63.0600    21.5050 O.co2        1 ACO1334  -1.0000
    31 O6A         62.3440    62.5390    22.5770 O.3          1 ACO1334   0.0000
    32 CBP         62.8190    62.8710    24.9990 C.3          1 ACO1334   0.0000
    33 CCP         62.4300    63.4730    23.5900 C.3          1 ACO1334   0.0000
    34 CDP         61.8090    61.7910    25.4250 C.3          1 ACO1334   0.0000
    35 CEP         62.8780    64.0160    26.0140 C.3          1 ACO1334   0.0000
    36 CAP         64.1810    62.1730    24.7510 C.3          1 ACO1334   0.0000
    37 OAP         65.0410    63.1110    24.2300 O.3          1 ACO1334   0.0000
    38 C9P         64.8280    61.5240    26.0070 C.2          1 ACO1334   0.0000
    39 O9P         64.6290    60.3980    26.3260 O.2          1 ACO1334   0.0000
    40 N8P         65.7070    62.3750    26.7850 N.am         1 ACO1334   0.0000
    41 C7P         66.3410    61.7720    27.9770 C.3          1 ACO1334   0.0000
    42 C6P         65.3840    61.3150    29.0550 C.3          1 ACO1334   0.0000
    43 C5P         64.2230    62.2940    29.3110 C.2          1 ACO1334   0.0000
    44 O5P         64.4400    63.4660    29.5640 O.2          1 ACO1334   0.0000
    45 N4P         62.9220    61.7940    29.1970 N.am         1 ACO1334   0.0000
    46 C3P         61.7960    62.6320    29.4260 C.3          1 ACO1334   0.0000
    47 C2P         61.4050    62.7030    30.8960 C.3          1 ACO1334   0.0000
    48 S1P         60.0700    63.8200    31.2160 S.3          1 ACO1334   0.0000
    49 C           58.6310    62.9370    30.6760 C.2          1 ACO1334   0.0000
    50 O           58.8100    61.7690    30.3270 O.2          1 ACO1334   0.0000
    51 CH3         57.2800    63.4850    30.8400 C.3          1 ACO1334   0.0000
    52 H2A         64.6476    74.1529    19.5947 H            1 ACO1334   0.0000
    53 H6A1        68.4402    70.4758    20.5456 H            1 ACO1334   0.0000
    54 H6A2        68.7586    72.1783    20.5637 H            1 ACO1334   0.0000
    55 H8A         64.5042    67.7303    19.8643 H            1 ACO1334   0.0000
    56 H1B         61.9826    70.4403    19.2662 H            1 ACO1334   0.0000
    57 H2B         62.7112    67.9354    18.0528 H            1 ACO1334   0.0000
    58 H7          62.1098    70.5109    17.2530 H            1 ACO1334   0.0000
    59 H3B         60.4559    67.6109    17.7111 H            1 ACO1334   0.0000
    60 H4B         59.7519    68.4597    20.0814 H            1 ACO1334   0.0000
    61 H5B1        59.8773    66.2225    19.9165 H            1 ACO1334   0.0000
    62 H5B2        60.9873    66.6048    21.0516 H            1 ACO1334   0.0000
    63 HCP1        61.5416    63.9238    23.6766 H            1 ACO1334   0.0000
    64 HCP2        63.1228    64.1478    23.3357 H            1 ACO1334   0.0000
    65 HDP1        62.0712    61.4226    26.3169 H            1 ACO1334   0.0000
    66 HDP2        60.8959    62.1941    25.4862 H            1 ACO1334   0.0000
    67 HDP3        61.8035    61.0544    24.7487 H            1 ACO1334   0.0000
    68 HEP1        63.1233    63.6525    26.9127 H            1 ACO1334   0.0000
    69 HEP2        63.5653    64.6824    25.7251 H            1 ACO1334   0.0000
    70 HEP3        61.9840    64.4608    26.0670 H            1 ACO1334   0.0000
    71 HAP         64.0454    61.4583    24.0649 H            1 ACO1334   0.0000
    72 H21         64.9728    63.1081    23.2323 H            1 ACO1334   0.0000
    73 H8P         65.8767    63.3262    26.5273 H            1 ACO1334   0.0000
    74 H7P1        66.9558    62.4515    28.3772 H            1 ACO1334   0.0000
    75 H7P2        66.8708    60.9786    27.6773 H            1 ACO1334   0.0000
    76 H6P1        65.8972    61.2049    29.9062 H            1 ACO1334   0.0000
    77 H6P2        64.9988    60.4336    28.7817 H            1 ACO1334   0.0000
    78 H4P         62.7816    60.8349    28.9513 H            1 ACO1334   0.0000
    79 H3P1        61.0204    62.2748    28.9056 H            1 ACO1334   0.0000
    80 H3P2        62.0141    63.5547    29.1081 H            1 ACO1334   0.0000
    81 H2P1        62.2014    63.0022    31.4216 H            1 ACO1334   0.0000
    82 H2P2        61.1320    61.7889    31.1958 H            1 ACO1334   0.0000
    83 HH31        56.6112    62.8381    30.4738 H            1 ACO1334   0.0000
    84 HH32        57.0982    63.6384    31.8113 H            1 ACO1334   0.0000
    85 HH33        57.2098    64.3520    30.3467 H            1 ACO1334   0.0000
@<TRIPOS>BOND
     1    1    2      ar
     2    1    6      ar
     3    2    3      ar
     4    3    4      ar
     5    4    5      ar
     6    4   10       1
     7    5    6      ar
     8    5    8       1
     9    6    7       1
    10    8    9       2
    11    9   10       1
    12   10   11       1
    13   11   12       1
    14   11   21       1
    15   12   13       1
    16   12   14       1
    17   14   15       1
    18   14   20       1
    19   15   16       1
    20   16   17      ar
    21   16   18      ar
    22   16   19      ar
    23   20   21       1
    24   20   22       1
    25   22   23       1
    26   23   24       1
    27   24   25      ar
    28   24   26      ar
    29   24   27       1
    30   27   28       1
    31   28   29      ar
    32   28   30      ar
    33   28   31       1
    34   31   33       1
    35   32   33       1
    36   32   34       1
    37   32   35       1
    38   32   36       1
    39   36   37       1
    40   36   38       1
    41   38   39       2
    42   38   40      am
    43   40   41       1
    44   41   42       1
    45   42   43       1
    46   43   44       2
    47   43   45      am
    48   45   46       1
    49   46   47       1
    50   47   48       1
    51   48   49       1
    52   49   50       2
    53   49   51       1
    54    2   52       1
    55    7   53       1
    56    7   54       1
    57    9   55       1
    58   11   56       1
    59   12   57       1
    60   13   58       1
    61   14   59       1
    62   51   85       1
    63   51   84       1
    64   20   60       1
    65   22   61       1
    66   22   62       1
    67   51   83       1
    68   47   82       1
    69   33   63       1
    70   33   64       1
    71   34   65       1
    72   34   66       1
    73   34   67       1
    74   35   68       1
    75   35   69       1
    76   35   70       1
    77   36   71       1
    78   37   72       1
    79   40   73       1
    80   41   74       1
    81   41   75       1
    82   42   76       1
    83   42   77       1
    84   45   78       1
    85   46   79       1
    86   46   80       1
    87   47   81       1
@<TRIPOS>SUBSTRUCTURE
     1 ACO1334     1 GROUP             4 A     ACO     0 **** ACO A1334
