@<TRIPOS>MOLECULE
2p3c_3TL_1_ligand
  130   133     1     0     0
SMALL
NO_CHARGES


@<TRIPOS>ATOM
     1 C31        -11.6970   -11.7070     5.4010 C.2          1 3TL201   0.0000
     2 O8         -10.6620   -11.1610     5.7560 O.2          1 3TL201   0.0000
     3 O9         -12.1000   -11.6040     4.0050 O.3          1 3TL201   0.0000
     4 CA         -11.5180   -10.6300     3.1420 C.3          1 3TL201   0.0000
     5 C          -12.0500    -9.2340     3.3870 C.ar         1 3TL201   0.0000
     6 C13        -11.2170    -8.1330     3.1340 C.ar         1 3TL201   0.0000
     7 C14        -11.6840    -6.8380     3.3310 C.ar         1 3TL201   0.0000
     8 C15        -12.9880    -6.6340     3.7910 C.ar         1 3TL201   0.0000
     9 C16        -13.8200    -7.7300     4.0430 C.ar         1 3TL201   0.0000
    10 C17        -13.3480    -9.0340     3.8350 C.ar         1 3TL201   0.0000
    11 N4         -12.4990   -12.3820     6.2310 N.am         1 3TL201   0.0000
    12 C18        -12.2500   -12.4720     7.6590 C.3          1 3TL201   0.0000
    13 C19        -11.6120   -13.7830     8.0210 C.2          1 3TL201   0.0000
    14 O4         -11.9560   -14.8200     7.4890 O.2          1 3TL201   0.0000
    15 C20        -13.5470   -12.2970     8.4420 C.3          1 3TL201   0.0000
    16 N2         -10.6500   -13.7320     8.9270 N.am         1 3TL201   0.0000
    17 C10         -9.9200   -14.9030     9.3970 C.3          1 3TL201   0.0000
    18 C11         -9.7140   -14.7090    10.8630 C.2          1 3TL201   0.0000
    19 O2          -8.9370   -13.8740    11.2760 O.2          1 3TL201   0.0000
    20 C12         -8.6040   -15.0860     8.6420 C.3          1 3TL201   0.0000
    21 CG2         -8.8390   -15.4600     7.1820 C.3          1 3TL201   0.0000
    22 CG1         -7.6350   -16.0840     9.2810 C.3          1 3TL201   0.0000
    23 C2          -9.8850   -16.5460    13.7550 C.3          1 3TL201   0.0000
    24 O1         -10.7170   -17.6220    13.3810 O.3          1 3TL201   0.0000
    25 C1         -10.4590   -15.3080    13.0890 C.3          1 3TL201   0.0000
    26 N1         -10.4620   -15.4670    11.6520 N.am         1 3TL201   0.0000
    27 C3         -11.8870   -15.0520    13.5630 C.3          1 3TL201   0.0000
    28 C4         -12.2070   -13.5980    13.3430 C.ar         1 3TL201   0.0000
    29 C5         -13.0210   -13.2240    12.2710 C.ar         1 3TL201   0.0000
    30 C9         -11.6910   -12.6440    14.2180 C.ar         1 3TL201   0.0000
    31 C6         -13.3020   -11.8730    12.0760 C.ar         1 3TL201   0.0000
    32 C8         -11.9720   -11.2970    14.0120 C.ar         1 3TL201   0.0000
    33 C7         -12.7720   -10.9140    12.9410 C.ar         1 3TL201   0.0000
    34 N51         -7.4340   -16.1420    15.3070 N.am         1 3TL201   0.0000
    35 C51         -7.3580   -16.0730    13.8530 C.3          1 3TL201   0.0000
    36 C52         -8.4860   -16.9260    13.3040 C.3          1 3TL201   0.0000
    37 O51         -8.2600   -18.2620    13.7460 O.3          1 3TL201   0.0000
    38 C53         -6.1070   -16.7490    13.3000 C.3          1 3TL201   0.0000
    39 C54         -4.8150   -16.1800    13.8230 C.ar         1 3TL201   0.0000
    40 C55         -4.4190   -16.4080    15.1320 C.ar         1 3TL201   0.0000
    41 C59         -4.0260   -15.4460    12.9650 C.ar         1 3TL201   0.0000
    42 C56         -3.2240   -15.8820    15.6070 C.ar         1 3TL201   0.0000
    43 C58         -2.8360   -14.9170    13.4290 C.ar         1 3TL201   0.0000
    44 C57         -2.4410   -15.1300    14.7490 C.ar         1 3TL201   0.0000
    45 N52         -6.4280   -15.7080    18.1860 N.am         1 3TL201   0.0000
    46 C60         -7.7440   -15.5150    17.5790 C.3          1 3TL201   0.0000
    47 C61         -7.5540   -15.1130    16.1450 C.2          1 3TL201   0.0000
    48 O52         -7.4890   -13.9360    15.8140 O.2          1 3TL201   0.0000
    49 C62         -8.6460   -14.5300    18.3460 C.3          1 3TL201   0.0000
    50 CG6         -8.6160   -14.7410    19.8670 C.3          1 3TL201   0.0000
    51 CG5        -10.0840   -14.6370    17.8590 C.3          1 3TL201   0.0000
    52 N54         -4.4250   -16.8840    20.6960 N.am         1 3TL201   0.0000
    53 C68         -4.6030   -16.8670    19.2570 C.3          1 3TL201   0.0000
    54 C69         -6.0690   -16.7580    18.9300 C.2          1 3TL201   0.0000
    55 O54         -6.8610   -17.5630    19.3900 O.2          1 3TL201   0.0000
    56 C70         -3.9200   -18.0950    18.6590 C.3          1 3TL201   0.0000
    57 C81         -4.0890   -15.7890    21.3680 C.2          1 3TL201   0.0000
    58 O58         -3.8480   -14.7170    20.8330 O.2          1 3TL201   0.0000
    59 O59         -3.9850   -15.9170    22.8110 O.3          1 3TL201   0.0000
    60 CA5         -3.4950   -14.8330    23.6000 C.3          1 3TL201   0.0000
    61 C50         -1.9830   -14.7630    23.5710 C.ar         1 3TL201   0.0000
    62 C63         -1.3570   -13.5350    23.7900 C.ar         1 3TL201   0.0000
    63 C64          0.0360   -13.4460    23.7840 C.ar         1 3TL201   0.0000
    64 C65          0.8080   -14.5830    23.5600 C.ar         1 3TL201   0.0000
    65 C66          0.1790   -15.8120    23.3490 C.ar         1 3TL201   0.0000
    66 C67         -1.2160   -15.9100    23.3590 C.ar         1 3TL201   0.0000
    67 HA1        -11.7140   -10.8847     2.1951 H            1 3TL201   0.0000
    68 HA2        -10.5287   -10.6248     3.2878 H            1 3TL201   0.0000
    69 H3         -10.2824    -8.2806     2.8103 H            1 3TL201   0.0000
    70 H4         -11.0893    -6.0560     3.1443 H            1 3TL201   0.0000
    71 H5         -13.3261    -5.7048     3.9399 H            1 3TL201   0.0000
    72 H6         -14.7529    -7.5833     4.3720 H            1 3TL201   0.0000
    73 H7         -13.9449    -9.8172     4.0090 H            1 3TL201   0.0000
    74 H8         -13.3021   -12.8431     5.8536 H            1 3TL201   0.0000
    75 H9         -11.6246   -11.7355     7.9168 H            1 3TL201   0.0000
    76 H10        -13.3564   -12.3618     9.4215 H            1 3TL201   0.0000
    77 H11        -13.9414   -11.4010     8.2378 H            1 3TL201   0.0000
    78 H12        -14.1937   -13.0134     8.1801 H            1 3TL201   0.0000
    79 H13        -10.4100   -12.8405     9.3111 H            1 3TL201   0.0000
    80 H14        -10.4875   -15.7142     9.2561 H            1 3TL201   0.0000
    81 H15         -8.1451   -14.1975     8.6422 H            1 3TL201   0.0000
    82 HG21        -7.9588   -15.5713     6.7206 H            1 3TL201   0.0000
    83 HG22        -9.3504   -16.3181     7.1359 H            1 3TL201   0.0000
    84 HG23        -9.3618   -14.7358     6.7324 H            1 3TL201   0.0000
    85 HG11        -6.8045   -16.1436     8.7271 H            1 3TL201   0.0000
    86 HG12        -7.3995   -15.7763    10.2029 H            1 3TL201   0.0000
    87 HG13        -8.0680   -16.9840     9.3304 H            1 3TL201   0.0000
    88 H22         -9.9018   -16.4345    14.7486 H            1 3TL201   0.0000
    89 H23        -11.4549   -17.7205    14.0487 H            1 3TL201   0.0000
    90 H24         -9.8920   -14.5194    13.3269 H            1 3TL201   0.0000
    91 H25        -11.0448   -16.1686    11.2419 H            1 3TL201   0.0000
    92 H26        -11.9645   -15.2715    14.5355 H            1 3TL201   0.0000
    93 H27        -12.5231   -15.6205    13.0413 H            1 3TL201   0.0000
    94 H28        -13.3962   -13.9150    11.6531 H            1 3TL201   0.0000
    95 H29        -11.1216   -12.9262    14.9901 H            1 3TL201   0.0000
    96 H30        -13.8849   -11.5898    11.3144 H            1 3TL201   0.0000
    97 H31        -11.5998   -10.6064    14.6322 H            1 3TL201   0.0000
    98 H32        -12.9689    -9.9454    12.7895 H            1 3TL201   0.0000
    99 H33         -7.3918   -17.0532    15.7168 H            1 3TL201   0.0000
   100 H34         -7.4301   -15.1287    13.5320 H            1 3TL201   0.0000
   101 H35         -8.4510   -16.9052    12.3048 H            1 3TL201   0.0000
   102 H36         -8.5578   -18.9022    13.0379 H            1 3TL201   0.0000
   103 H37         -6.1122   -16.6520    12.3047 H            1 3TL201   0.0000
   104 H38         -6.1425   -17.7190    13.5405 H            1 3TL201   0.0000
   105 H39         -4.9971   -16.9544    15.7380 H            1 3TL201   0.0000
   106 H40         -4.3106   -15.2976    12.0179 H            1 3TL201   0.0000
   107 H41         -2.9353   -16.0437    16.5507 H            1 3TL201   0.0000
   108 H42         -2.2567   -14.3799    12.8159 H            1 3TL201   0.0000
   109 H43         -1.5834   -14.7355    15.0790 H            1 3TL201   0.0000
   110 H44         -5.7417   -14.9972    18.0320 H            1 3TL201   0.0000
   111 H45         -8.2048   -16.4025    17.5802 H            1 3TL201   0.0000
   112 H46         -8.3232   -13.6028    18.1559 H            1 3TL201   0.0000
   113 HG61        -9.2181   -14.0753    20.3078 H            1 3TL201   0.0000
   114 HG62        -8.9286   -15.6664    20.0814 H            1 3TL201   0.0000
   115 HG63        -7.6818   -14.6187    20.2021 H            1 3TL201   0.0000
   116 HG51       -10.6564   -13.9923    18.3657 H            1 3TL201   0.0000
   117 HG52       -10.1224   -14.4213    16.8833 H            1 3TL201   0.0000
   118 HG53       -10.4180   -15.5677    18.0080 H            1 3TL201   0.0000
   119 H53         -4.5584   -17.7407    21.1942 H            1 3TL201   0.0000
   120 H54         -4.1451   -16.0535    18.8986 H            1 3TL201   0.0000
   121 H55         -4.0378   -18.0915    17.6660 H            1 3TL201   0.0000
   122 H56         -2.9447   -18.0742    18.8790 H            1 3TL201   0.0000
   123 H57         -4.3302   -18.9234    19.0404 H            1 3TL201   0.0000
   124 HA51        -3.7962   -14.9574    24.5454 H            1 3TL201   0.0000
   125 HA52        -3.8666   -13.9766    23.2417 H            1 3TL201   0.0000
   126 H60         -1.9081   -12.7164    23.9517 H            1 3TL201   0.0000
   127 H61          0.4804   -12.5640    23.9409 H            1 3TL201   0.0000
   128 H62          1.8060   -14.5200    23.5503 H            1 3TL201   0.0000
   129 H63          0.7316   -16.6300    23.1892 H            1 3TL201   0.0000
   130 H64         -1.6604   -16.7943    23.2155 H            1 3TL201   0.0000
@<TRIPOS>BOND
     1    1    2       2
     2    1    3       1
     3    1   11      am
     4    3    4       1
     5    4    5       1
     6    5    6      ar
     7    5   10      ar
     8    6    7      ar
     9    7    8      ar
    10    8    9      ar
    11    9   10      ar
    12   11   12       1
    13   12   13       1
    14   12   15       1
    15   13   14       2
    16   13   16      am
    17   16   17       1
    18   17   18       1
    19   17   20       1
    20   18   19       2
    21   18   26      am
    22   20   21       1
    23   20   22       1
    24   23   24       1
    25   23   25       1
    26   23   36       1
    27   25   26       1
    28   25   27       1
    29   27   28       1
    30   28   29      ar
    31   28   30      ar
    32   29   31      ar
    33   30   32      ar
    34   31   33      ar
    35   32   33      ar
    36   34   35       1
    37   34   47      am
    38   35   36       1
    39   35   38       1
    40   36   37       1
    41   38   39       1
    42   39   40      ar
    43   39   41      ar
    44   40   42      ar
    45   41   43      ar
    46   42   44      ar
    47   43   44      ar
    48   45   46       1
    49   45   54      am
    50   46   47       1
    51   46   49       1
    52   47   48       2
    53   49   50       1
    54   49   51       1
    55   52   53       1
    56   52   57      am
    57   53   54       1
    58   53   56       1
    59   54   55       2
    60   57   58       2
    61   57   59       1
    62   59   60       1
    63   60   61       1
    64   61   62      ar
    65   61   66      ar
    66   62   63      ar
    67   63   64      ar
    68   64   65      ar
    69   65   66      ar
    70    4   67       1
    71    4   68       1
    72    6   69       1
    73    7   70       1
    74    8   71       1
    75    9   72       1
    76   10   73       1
    77   11   74       1
    78   12   75       1
    79   15   76       1
    80   15   77       1
    81   15   78       1
    82   16   79       1
    83   17   80       1
    84   20   81       1
    85   21   82       1
    86   21   83       1
    87   21   84       1
    88   22   85       1
    89   22   86       1
    90   22   87       1
    91   23   88       1
    92   24   89       1
    93   25   90       1
    94   26   91       1
    95   27   92       1
    96   27   93       1
    97   29   94       1
    98   30   95       1
    99   31   96       1
   100   32   97       1
   101   33   98       1
   102   34   99       1
   103   35  100       1
   104   36  101       1
   105   37  102       1
   106   38  103       1
   107   38  104       1
   108   40  105       1
   109   41  106       1
   110   42  107       1
   111   43  108       1
   112   44  109       1
   113   45  110       1
   114   46  111       1
   115   49  112       1
   116   50  113       1
   117   50  114       1
   118   50  115       1
   119   51  116       1
   120   51  117       1
   121   51  118       1
   122   52  119       1
   123   53  120       1
   124   56  121       1
   125   56  122       1
   126   56  123       1
   127   60  124       1
   128   60  125       1
   129   62  126       1
   130   63  127       1
   131   64  128       1
   132   65  129       1
   133   66  130       1
@<TRIPOS>SUBSTRUCTURE
     1 3TL201      1 GROUP             4 A     3TL     0 **** 3TL A 201
