@<TRIPOS>MOLECULE
4po0_NPS_2_ligand
   30    31     1     0     0
SMALL
NO_CHARGES


@<TRIPOS>ATOM
     1 C1          42.7920     5.7540    55.5220 C.ar         1 NPS602   0.0000
     2 O2          42.5870     5.0820    56.7630 O.3          1 NPS602   0.0000
     3 C2          43.3330     5.0670    54.4250 C.ar         1 NPS602   0.0000
     4 C14         43.2830     9.7930    50.3300 C.3          1 NPS602   0.0000
     5 C3          43.5050     5.7180    53.1630 C.ar         1 NPS602   0.0000
     6 C4          43.1660     7.0460    53.0150 C.ar         1 NPS602   0.0000
     7 C5          42.6320     7.7410    54.0940 C.ar         1 NPS602   0.0000
     8 C6          42.4400     7.0670    55.3810 C.ar         1 NPS602   0.0000
     9 C7          43.3920     7.7090    51.7670 C.ar         1 NPS602   0.0000
    10 C8          43.0200     9.0630    51.6200 C.ar         1 NPS602   0.0000
    11 C10         44.1120     8.9440    49.4150 C.3          1 NPS602   0.0000
    12 C13         42.2830     9.1170    53.9560 C.ar         1 NPS602   0.0000
    13 C11         42.4840     9.7710    52.7270 C.ar         1 NPS602   0.0000
    14 C12         43.6700     4.3830    57.3760 C.3          1 NPS602   0.0000
    15 O           43.4630    12.3500    50.4390 O.co2        1 NPS602   0.0000
    16 OXT         45.2340    11.1160    51.2640 O.co2        1 NPS602  -1.0000
    17 C15         44.0430    11.1640    50.6680 C.2          1 NPS602   0.0000
    18 H1          43.6020     4.1092    54.5267 H            1 NPS602   0.0000
    19 H2          42.4114    10.0009    49.8861 H            1 NPS602   0.0000
    20 H3          43.8725     5.2080    52.3853 H            1 NPS602   0.0000
    21 H4          42.0519     7.5672    56.1551 H            1 NPS602   0.0000
    22 H5          43.8107     7.2164    51.0040 H            1 NPS602   0.0000
    23 H6          44.2801     9.4387    48.5624 H            1 NPS602   0.0000
    24 H7          44.9846     8.7330    49.8555 H            1 NPS602   0.0000
    25 H8          43.6246     8.0937    49.2165 H            1 NPS602   0.0000
    26 H9          41.8961     9.6159    54.7315 H            1 NPS602   0.0000
    27 H10         42.2484    10.7383    52.6330 H            1 NPS602   0.0000
    28 H11         43.3589     3.9716    58.2327 H            1 NPS602   0.0000
    29 H12         43.9946     3.6651    56.7601 H            1 NPS602   0.0000
    30 H13         44.4153     5.0225    57.5646 H            1 NPS602   0.0000
@<TRIPOS>BOND
     1    1    2       1
     2    1    3      ar
     3    1    8      ar
     4    2   14       1
     5    3    5      ar
     6    4   10       1
     7    4   11       1
     8    4   17       1
     9    5    6      ar
    10    6    7      ar
    11    6    9      ar
    12    7    8      ar
    13    7   12      ar
    14    9   10      ar
    15   10   13      ar
    16   12   13      ar
    17   15   17      ar
    18   16   17      ar
    19    3   18       1
    20    4   19       1
    21    5   20       1
    22    8   21       1
    23    9   22       1
    24   11   23       1
    25   11   24       1
    26   11   25       1
    27   12   26       1
    28   13   27       1
    29   14   28       1
    30   14   29       1
    31   14   30       1
@<TRIPOS>SUBSTRUCTURE
     1 NPS602      1 GROUP             4 A     NPS     0 **** NPS A 602
