@<TRIPOS>MOLECULE
./coach420/1xwq/ligand.pdb
 28 30 0 0 0
SMALL
GASTEIGER

@<TRIPOS>ATOM
      1  O4A      -10.3250   -0.1150    9.0990 O.3   500  XYP500     -0.1869
      2  C1B      -10.9770    0.6540   10.0930 C.3   500  XYP500      0.3023
      3  C2B       -9.9850    1.4360   10.9290 C.3   500  XYP500      0.2433
      4  C3B       -9.1680    0.4810   11.8140 C.3   500  XYP500      0.2168
      5  C4B      -10.0760   -0.4730   12.6000 C.3   500  XYP500      0.1803
      6  C5B      -11.0910   -1.1320   11.6620 C.3   500  XYP500      0.1771
      7  O2B       -9.1310    2.1850   10.0850 O.3   500  XYP500     -0.2148
      8  O3B       -8.3310    1.2110   12.6870 O.3   500  XYP500     -0.2175
      9  O4B       -9.3200   -1.4990   13.2110 O.3   500  XYP500     -0.3257
     10  O5B      -11.7580   -0.1510   10.8750 O.3   500  XYP500     -0.3239
     11  C1B       -7.6520   -0.1710   16.1670 C.3   501  XYP501      0.1770
     12  C2B       -7.2850   -1.4830   16.8680 C.3   501  XYP501      0.1803
     13  C3B       -8.4420   -2.4640   16.7260 C.3   501  XYP501      0.2167
     14  C4B       -8.8410   -2.6050   15.2580 C.3   501  XYP501      0.2404
     15  C5B       -9.0790   -1.2590   14.6130 C.3   501  XYP501      0.2695
     16  O2B       -7.0710   -1.2870   18.2480 O.3   501  XYP501     -0.3257
     17  O3B       -8.0820   -3.7270   17.2490 O.3   501  XYP501     -0.2175
     18  O4B      -10.0050   -3.3990   15.1900 O.3   501  XYP501     -0.2149
     19  O5B       -8.0270   -0.4090   14.8150 O.3   501  XYP501     -0.3259
     20  C1B       -3.4630   -1.4420   18.7130 C.3   502  XYP502      0.1803
     21  C2B       -3.3530   -1.1240   20.2010 C.3   502  XYP502      0.2143
     22  C3B       -4.4050   -0.0740   20.5630 C.3   502  XYP502      0.2198
     23  C4B       -5.7830   -0.4310   20.0160 C.3   502  XYP502      0.2406
     24  C5B       -5.7300   -0.8690   18.5770 C.3   502  XYP502      0.2695
     25  O2B       -2.0460   -0.6660   20.4890 O.3   502  XYP502     -0.2176
     26  O3B       -4.5240    0.0720   21.9610 O.3   502  XYP502     -0.2174
     27  O4B       -6.6330    0.6860   20.1330 O.3   502  XYP502     -0.2149
     28  O5B       -4.7920   -1.8420   18.4050 O.3   502  XYP502     -0.3257
@<TRIPOS>BOND
     1     1     2    1
     2     2    10    1
     3     2     3    1
     4     3     7    1
     5     3     4    1
     6     4     5    1
     7     4     8    1
     8     5     6    1
     9     5     9    1
    10     6    10    1
    11     9    15    1
    12    11    19    1
    13    11    12    1
    14    12    13    1
    15    12    16    1
    16    13    14    1
    17    13    17    1
    18    14    15    1
    19    14    18    1
    20    15    19    1
    21    16    24    1
    22    20    28    1
    23    20    21    1
    24    21    25    1
    25    21    22    1
    26    22    23    1
    27    22    26    1
    28    23    24    1
    29    23    27    1
    30    24    28    1
