@<TRIPOS>MOLECULE
4xnw_2ID_1_ligand
   43    46     1     0     0
SMALL
USER_CHARGES


@<TRIPOS>ATOM
     1 OAF         24.5600    20.5540    12.0400 O.co2        1 2ID1101  -0.5000
     2 PBC         24.1960    21.0300    10.5560 P.3          1 2ID1101   0.0000
     3 OAG         23.0760    19.9900    10.0560 O.co2        1 2ID1101  -0.5000
     4 OAC         25.4410    20.9900     9.7350 O.co2        1 2ID1101  -0.5000
     5 OAR         23.5010    22.5100    10.6520 O.3          1 2ID1101   0.0000
     6 CAW         22.1710    22.7730    10.1560 C.3          1 2ID1101   0.0000
     7 CAK         21.2060    22.5860    11.3000 C.3          1 2ID1101   0.0000
     8 CBA         22.0160    24.2660     9.6780 C.3          1 2ID1101   0.0000
     9 CAJ         21.8740    24.5660     8.2070 C.3          1 2ID1101   0.0000
    10 OAQ         22.4470    23.5610     7.3930 O.3          1 2ID1101   0.0000
    11 PBB         22.2400    23.7210     5.8030 P.3          1 2ID1101   0.0000
    12 OAD         22.5040    25.2550     5.4710 O.co2        1 2ID1101  -0.5000
    13 OAE         20.6450    23.4990     5.5380 O.co2        1 2ID1101  -0.5000
    14 OAB         23.0850    22.7540     5.0470 O.co2        1 2ID1101  -0.5000
    15 CAL         22.0640    25.3950    10.6460 C.3          1 2ID1101   0.0000
    16 CAY         20.7610    24.7550    10.3040 C.3          1 2ID1101   0.0000
    17 CAX         20.1260    23.6620    11.1100 C.3          1 2ID1101   0.0000
    18 N9          18.9600    23.1430    10.3580 N.pl3        1 2ID1101   0.0000
    19 C8          18.8750    22.8400     9.0700 C.2          1 2ID1101   0.0000
    20 N7          17.6540    22.3760     8.8190 N.2          1 2ID1101   0.0000
    21 C5          16.9790    22.3910     9.9550 C.ar         1 2ID1101   0.0000
    22 C4          17.7890    22.8660    10.9030 C.ar         1 2ID1101   0.0000
    23 N3          17.3450    22.9820    12.1610 N.ar         1 2ID1101   0.0000
    24 C2          16.0810    22.6170    12.4580 C.ar         1 2ID1101   0.0000
    25 I2          15.3690    22.7810    14.4260 I            1 2ID1101   0.0000
    26 N1          15.2650    22.1460    11.5010 N.ar         1 2ID1101   0.0000
    27 C6          15.7330    22.0360    10.2600 C.ar         1 2ID1101   0.0000
    28 N6          14.9870    21.5790     9.2750 N.pl3        1 2ID1101   0.0000
    29 CAA         13.8030    20.7800     9.6410 C.3          1 2ID1101   0.0000
    30 HAW         21.9492    22.1455     9.4096 H            1 2ID1101   0.0000
    31 HAK1        21.6735    22.7115    12.1750 H            1 2ID1101   0.0000
    32 HAK2        20.7988    21.6732    11.2675 H            1 2ID1101   0.0000
    33 HAJ1        22.3282    25.4352     8.0114 H            1 2ID1101   0.0000
    34 HAJ2        20.9014    24.6413     7.9872 H            1 2ID1101   0.0000
    35 HAL1        22.2663    26.3205    10.3258 H            1 2ID1101   0.0000
    36 HAL2        22.4650    25.2606    11.5522 H            1 2ID1101   0.0000
    37 HAY         20.1493    25.2834     9.7152 H            1 2ID1101   0.0000
    38 HAX         19.8327    24.0156    11.9982 H            1 2ID1101   0.0000
    39 H10         19.6082    22.9433     8.3979 H            1 2ID1101   0.0000
    40 H11         15.2142    21.7661     8.3193 H            1 2ID1101   0.0000
    41 HAA1        13.3241    20.4942     8.8109 H            1 2ID1101   0.0000
    42 HAA2        14.0919    19.9718    10.1542 H            1 2ID1101   0.0000
    43 HAA3        13.1900    21.3321    10.2061 H            1 2ID1101   0.0000
@<TRIPOS>BOND
     1    1    2      ar
     2    2    3      ar
     3    2    4      ar
     4    2    5       1
     5    5    6       1
     6    6    7       1
     7    6    8       1
     8    7   17       1
     9    8    9       1
    10    8   15       1
    11    8   16       1
    12    9   10       1
    13   10   11       1
    14   11   12      ar
    15   11   13      ar
    16   11   14      ar
    17   15   16       1
    18   16   17       1
    19   17   18       1
    20   18   19       1
    21   18   22       1
    22   19   20       2
    23   20   21       1
    24   21   22      ar
    25   21   27      ar
    26   22   23      ar
    27   23   24      ar
    28   24   25       1
    29   24   26      ar
    30   26   27      ar
    31   27   28       1
    32   28   29       1
    33   29   43       1
    34   29   42       1
    35    6   30       1
    36    7   31       1
    37    7   32       1
    38    9   33       1
    39    9   34       1
    40   29   41       1
    41   28   40       1
    42   15   35       1
    43   15   36       1
    44   16   37       1
    45   17   38       1
    46   19   39       1
@<TRIPOS>SUBSTRUCTURE
     1 2ID1101     1 GROUP             4 A     2ID     0 **** 2ID A1101
