@<TRIPOS>MOLECULE
2wat_COA_3_ligand
   80    82     1     0     0
SMALL
NO_CHARGES


@<TRIPOS>ATOM
     1 N1A        -27.7060     9.1270   -48.5520 N.ar         1 COA2887   0.0000
     2 C2A        -26.5220     9.6920   -48.1340 C.ar         1 COA2887   0.0000
     3 N3A        -26.5270    10.8260   -47.3560 N.ar         1 COA2887   0.0000
     4 C4A        -27.7020    11.3840   -46.9770 C.ar         1 COA2887   0.0000
     5 C5A        -28.9070    10.8320   -47.3850 C.ar         1 COA2887   0.0000
     6 C6A        -28.9030     9.6930   -48.1780 C.ar         1 COA2887   0.0000
     7 N6A        -30.0260     9.2780   -48.7530 N.pl3        1 COA2887   0.0000
     8 N7A        -29.9050    11.5880   -46.8760 N.2          1 COA2887   0.0000
     9 C8A        -29.3650    12.6020   -46.1680 C.2          1 COA2887   0.0000
    10 N9A        -28.0000    12.4850   -46.2230 N.pl3        1 COA2887   0.0000
    11 C1B        -27.0310    13.3190   -45.5100 C.3          1 COA2887   0.0000
    12 C2B        -27.4350    14.7840   -45.5730 C.3          1 COA2887   0.0000
    13 O2B        -26.2800    15.4960   -45.9270 O.3          1 COA2887   0.0000
    14 C3B        -27.7740    15.1670   -44.1500 C.3          1 COA2887   0.0000
    15 O3B        -27.2610    16.4260   -43.8280 O.3          1 COA2887   0.0000
    16 P3B        -27.8280    17.7180   -44.5870 P.3          1 COA2887   0.0000
    17 O7A        -27.0580    17.8460   -45.8730 O.co2        1 COA2887   0.0000
    18 O8A        -27.6140    18.9430   -43.7410 O.co2        1 COA2887  -1.0000
    19 O9A        -29.2940    17.5400   -44.8880 O.co2        1 COA2887  -1.0000
    20 C4B        -27.0230    14.1310   -43.3560 C.3          1 COA2887   0.0000
    21 O4B        -27.0340    12.9650   -44.1490 O.3          1 COA2887   0.0000
    22 C5B        -27.6920    13.8680   -42.0300 C.3          1 COA2887   0.0000
    23 O5B        -26.7020    13.1670   -41.3500 O.3          1 COA2887   0.0000
    24 P1A        -26.8350    12.9460   -39.7920 P.3          1 COA2887   0.0000
    25 O1A        -26.6770    14.3060   -39.1720 O.co2        1 COA2887   0.0000
    26 O2A        -25.7620    11.9600   -39.4210 O.co2        1 COA2887  -1.0000
    27 O3A        -28.3430    12.4710   -39.4630 O.3          1 COA2887   0.0000
    28 P2A        -28.8100    10.9900   -39.0010 P.3          1 COA2887   0.0000
    29 O4A        -27.8060    10.3710   -38.0570 O.co2        1 COA2887   0.0000
    30 O5A        -30.1720    11.1220   -38.3650 O.co2        1 COA2887  -1.0000
    31 O6A        -28.9380    10.0340   -40.2940 O.3          1 COA2887   0.0000
    32 CBP        -29.7460     9.2310   -42.3510 C.3          1 COA2887   0.0000
    33 CCP        -29.3130    10.4740   -41.5800 C.3          1 COA2887   0.0000
    34 CDP        -30.3860     9.6510   -43.6640 C.3          1 COA2887   0.0000
    35 CEP        -28.5220     8.3620   -42.6170 C.3          1 COA2887   0.0000
    36 CAP        -30.7610     8.4710   -41.4980 C.3          1 COA2887   0.0000
    37 OAP        -31.6450     9.4360   -40.9820 O.3          1 COA2887   0.0000
    38 C9P        -31.6010     7.5030   -42.2820 C.2          1 COA2887   0.0000
    39 O9P        -32.8440     7.9230   -42.7780 O.2          1 COA2887   0.0000
    40 N8P        -31.1880     6.2640   -42.5020 N.am         1 COA2887   0.0000
    41 C7P        -31.8970     5.5010   -43.5250 C.3          1 COA2887   0.0000
    42 C6P        -32.6050     4.2850   -42.9450 C.3          1 COA2887   0.0000
    43 C5P        -32.9120     3.2900   -44.0340 C.2          1 COA2887   0.0000
    44 O5P        -33.3370     3.7050   -45.1190 O.2          1 COA2887   0.0000
    45 N4P        -32.6950     2.0040   -43.7300 N.am         1 COA2887   0.0000
    46 C3P        -32.8350     0.8790   -44.6420 C.3          1 COA2887   0.0000
    47 C2P        -31.5120     0.2530   -45.1150 C.3          1 COA2887   0.0000
    48 S1P        -31.4060     0.1010   -46.9290 S.3          1 COA2887   0.0000
    49 H2A        -25.6524     9.2748   -48.3980 H            1 COA2887   0.0000
    50 H6A1       -30.9018     9.6821   -48.4891 H            1 COA2887   0.0000
    51 H6A2       -29.9957     8.5614   -49.4498 H            1 COA2887   0.0000
    52 H8A        -29.8730    13.3159   -45.6861 H            1 COA2887   0.0000
    53 H1B        -26.1174    13.1954   -45.8973 H            1 COA2887   0.0000
    54 H2B        -28.1934    14.9456   -46.2044 H            1 COA2887   0.0000
    55 H7         -26.4935    16.4714   -45.9822 H            1 COA2887   0.0000
    56 H3B        -28.7583    15.1171   -43.9807 H            1 COA2887   0.0000
    57 H4B        -26.0812    14.4328   -43.2079 H            1 COA2887   0.0000
    58 H5B1       -28.5184    13.3161   -42.1416 H            1 COA2887   0.0000
    59 H5B2       -27.9217    14.7213   -41.5618 H            1 COA2887   0.0000
    60 HCP1       -28.5376    10.9111   -42.0358 H            1 COA2887   0.0000
    61 HCP2       -30.0711    11.1229   -41.5161 H            1 COA2887   0.0000
    62 HDP1       -30.6707     8.8376   -44.1713 H            1 COA2887   0.0000
    63 HDP2       -31.1841    10.2239   -43.4776 H            1 COA2887   0.0000
    64 HDP3       -29.7242    10.1678   -44.2071 H            1 COA2887   0.0000
    65 HEP1       -28.7973     7.5443   -43.1225 H            1 COA2887   0.0000
    66 HEP2       -27.8569     8.8789   -43.1560 H            1 COA2887   0.0000
    67 HEP3       -28.1089     8.0928   -41.7470 H            1 COA2887   0.0000
    68 HAP        -30.2957     7.9962   -40.7510 H            1 COA2887   0.0000
    69 H21        -31.9916     9.1302   -40.0952 H            1 COA2887   0.0000
    70 H8P        -30.4249     5.8689   -41.9905 H            1 COA2887   0.0000
    71 H7P1       -31.2386     5.1935   -44.2120 H            1 COA2887   0.0000
    72 H7P2       -32.5765     6.0943   -43.9566 H            1 COA2887   0.0000
    73 H6P1       -33.4589     4.5753   -42.5131 H            1 COA2887   0.0000
    74 H6P2       -32.0152     3.8547   -42.2616 H            1 COA2887   0.0000
    75 H4P        -32.4116     1.7987   -42.7932 H            1 COA2887   0.0000
    76 H3P1       -33.3341     1.1948   -45.4490 H            1 COA2887   0.0000
    77 H3P2       -33.3654     0.1690   -44.1788 H            1 COA2887   0.0000
    78 H2P1       -31.4291    -0.6590   -44.7132 H            1 COA2887   0.0000
    79 H2P2       -30.7566     0.8267   -44.7984 H            1 COA2887   0.0000
    80 H1P        -30.4500     0.1700   -47.2140 H            1 COA2887   0.0000
@<TRIPOS>BOND
     1    1    2      ar
     2    1    6      ar
     3    2    3      ar
     4    3    4      ar
     5    4    5      ar
     6    4   10       1
     7    5    6      ar
     8    5    8       1
     9    6    7       1
    10    8    9       2
    11    9   10       1
    12   10   11       1
    13   11   12       1
    14   11   21       1
    15   12   13       1
    16   12   14       1
    17   14   15       1
    18   14   20       1
    19   15   16       1
    20   16   17      ar
    21   16   18      ar
    22   16   19      ar
    23   20   21       1
    24   20   22       1
    25   22   23       1
    26   23   24       1
    27   24   25      ar
    28   24   26      ar
    29   24   27       1
    30   27   28       1
    31   28   29      ar
    32   28   30      ar
    33   28   31       1
    34   31   33       1
    35   32   33       1
    36   32   34       1
    37   32   35       1
    38   32   36       1
    39   36   37       1
    40   36   38       1
    41   38   39       2
    42   38   40      am
    43   40   41       1
    44   41   42       1
    45   42   43       1
    46   43   44       2
    47   43   45      am
    48   45   46       1
    49   46   47       1
    50   47   48       1
    51    2   49       1
    52    7   50       1
    53    7   51       1
    54    9   52       1
    55   11   53       1
    56   12   54       1
    57   13   55       1
    58   14   56       1
    59   48   80       1
    60   47   79       1
    61   20   57       1
    62   22   58       1
    63   22   59       1
    64   47   78       1
    65   46   77       1
    66   33   60       1
    67   33   61       1
    68   34   62       1
    69   34   63       1
    70   34   64       1
    71   35   65       1
    72   35   66       1
    73   35   67       1
    74   36   68       1
    75   37   69       1
    76   40   70       1
    77   41   71       1
    78   41   72       1
    79   42   73       1
    80   42   74       1
    81   45   75       1
    82   46   76       1
@<TRIPOS>SUBSTRUCTURE
     1 COA2887     1 GROUP             4 C     COA     0 **** COA C2887
