@<TRIPOS>MOLECULE
1n8w_COA_1_ligand
   80    82     1     0     0
SMALL
NO_CHARGES


@<TRIPOS>ATOM
     1 N1A         10.3530    33.0970    77.1780 N.ar         1 COA903   0.0000
     2 C2A         10.3320    34.4330    76.8070 C.ar         1 COA903   0.0000
     3 N3A         11.5160    35.1050    76.5610 N.ar         1 COA903   0.0000
     4 C4A         12.7090    34.4510    76.6890 C.ar         1 COA903   0.0000
     5 C5A         12.7510    33.0980    77.0670 C.ar         1 COA903   0.0000
     6 C6A         11.5440    32.4150    77.3110 C.ar         1 COA903   0.0000
     7 N6A         11.4670    31.0890    77.2280 N.pl3        1 COA903   0.0000
     8 N7A         14.0600    32.7330    77.1120 N.2          1 COA903   0.0000
     9 C8A         14.8200    33.8110    76.7760 C.2          1 COA903   0.0000
    10 N9A         14.0010    34.8900    76.5130 N.pl3        1 COA903   0.0000
    11 C1B         14.3560    36.1840    75.8730 C.3          1 COA903   0.0000
    12 C2B         14.3060    37.3770    76.8330 C.3          1 COA903   0.0000
    13 O2B         12.9920    37.8990    76.9640 O.3          1 COA903   0.0000
    14 C3B         15.3740    38.3630    76.3210 C.3          1 COA903   0.0000
    15 O3B         14.8770    39.5600    75.7150 O.3          1 COA903   0.0000
    16 P3B         14.4490    40.9170    76.5150 P.3          1 COA903   0.0000
    17 O7A         15.5740    41.8930    76.5520 O.co2        1 COA903   0.0000
    18 O8A         13.2790    41.6150    75.7860 O.co2        1 COA903  -1.0000
    19 O9A         14.0110    40.5190    77.9380 O.co2        1 COA903  -1.0000
    20 C4B         16.1540    37.5330    75.2840 C.3          1 COA903   0.0000
    21 O4B         15.6810    36.1900    75.3750 O.3          1 COA903   0.0000
    22 C5B         17.6930    37.6120    75.4000 C.3          1 COA903   0.0000
    23 O5B         18.2680    36.6340    76.2590 O.3          1 COA903   0.0000
    24 P1A         18.0920    36.7350    77.8680 P.3          1 COA903   0.0000
    25 O1A         16.8260    36.0460    78.2480 O.co2        1 COA903   0.0000
    26 O2A         18.1420    38.2130    78.3410 O.co2        1 COA903  -1.0000
    27 O3A         19.3400    35.9400    78.5090 O.3          1 COA903   0.0000
    28 P2A         19.4230    34.3250    78.4510 P.3          1 COA903   0.0000
    29 O4A         20.8300    33.9330    78.7700 O.co2        1 COA903   0.0000
    30 O5A         18.9540    33.8180    77.0570 O.co2        1 COA903  -1.0000
    31 O6A         18.4540    33.7800    79.6450 O.3          1 COA903   0.0000
    32 CBP         17.3120    32.0070    80.9230 C.3          1 COA903   0.0000
    33 CCP         18.4870    32.4080    80.0230 C.3          1 COA903   0.0000
    34 CDP         17.2010    33.0620    82.0270 C.3          1 COA903   0.0000
    35 CEP         17.6130    30.6430    81.5520 C.3          1 COA903   0.0000
    36 CAP         15.9980    31.9190    80.1310 C.3          1 COA903   0.0000
    37 OAP         16.2570    31.6230    78.7700 O.3          1 COA903   0.0000
    38 C9P         14.9950    30.9370    80.7130 C.2          1 COA903   0.0000
    39 O9P         14.2970    31.2150    81.9120 O.2          1 COA903   0.0000
    40 N8P         14.7920    29.8010    80.0440 N.am         1 COA903   0.0000
    41 C7P         13.7390    29.6950    79.0530 C.3          1 COA903   0.0000
    42 C6P         12.4210    29.3000    79.7080 C.3          1 COA903   0.0000
    43 C5P         12.0590    27.8730    79.3610 C.2          1 COA903   0.0000
    44 O5P         11.9390    27.5460    78.1680 O.2          1 COA903   0.0000
    45 N4P         11.8900    27.0250    80.3840 N.am         1 COA903   0.0000
    46 C3P         10.9630    25.9060    80.3340 C.3          1 COA903   0.0000
    47 C2P         11.4370    24.7160    81.1610 C.3          1 COA903   0.0000
    48 S1P         10.3390    23.2770    81.0150 S.3          1 COA903   0.0000
    49 H2A          9.4588    34.9119    76.7170 H            1 COA903   0.0000
    50 H6A1        12.2940    30.5337    77.3159 H            1 COA903   0.0000
    51 H6A2        10.5822    30.6480    77.0777 H            1 COA903   0.0000
    52 H8A         15.8188    33.8197    76.7272 H            1 COA903   0.0000
    53 H1B         13.7257    36.3529    75.1153 H            1 COA903   0.0000
    54 H2B         14.5965    37.0548    77.7340 H            1 COA903   0.0000
    55 H7          12.3267    37.1638    76.8337 H            1 COA903   0.0000
    56 H3B         15.9852    38.6056    77.0744 H            1 COA903   0.0000
    57 H4B         15.9049    37.8764    74.3785 H            1 COA903   0.0000
    58 H5B1        17.9343    38.5170    75.7504 H            1 COA903   0.0000
    59 H5B2        18.0821    37.4937    74.4864 H            1 COA903   0.0000
    60 HCP1        19.3397    32.2334    80.5153 H            1 COA903   0.0000
    61 HCP2        18.4596    31.8484    79.1947 H            1 COA903   0.0000
    62 HDP1        16.4413    32.8301    82.6345 H            1 COA903   0.0000
    63 HDP2        18.0519    33.0862    82.5517 H            1 COA903   0.0000
    64 HDP3        17.0373    33.9588    81.6159 H            1 COA903   0.0000
    65 HEP1        16.8518    30.3724    82.1414 H            1 COA903   0.0000
    66 HEP2        17.7336    29.9621    80.8296 H            1 COA903   0.0000
    67 HEP3        18.4501    30.7041    82.0956 H            1 COA903   0.0000
    68 HAP         15.5749    32.8246    80.1603 H            1 COA903   0.0000
    69 H21         15.5430    32.0283    78.1990 H            1 COA903   0.0000
    70 H8P         15.3753    29.0100    80.2289 H            1 COA903   0.0000
    71 H7P1        13.9914    29.0011    78.3787 H            1 COA903   0.0000
    72 H7P2        13.6273    30.5779    78.5969 H            1 COA903   0.0000
    73 H6P1        11.6977    29.9102    79.3846 H            1 COA903   0.0000
    74 H6P2        12.5093    29.3843    80.7005 H            1 COA903   0.0000
    75 H4P         12.4240    27.1676    81.2174 H            1 COA903   0.0000
    76 H3P1        10.8626    25.6153    79.3825 H            1 COA903   0.0000
    77 H3P2        10.0769    26.2080    80.6856 H            1 COA903   0.0000
    78 H2P1        11.4782    24.9905    82.1217 H            1 COA903   0.0000
    79 H2P2        12.3505    24.4540    80.8497 H            1 COA903   0.0000
    80 H1P         10.8717    22.4384    81.1288 H            1 COA903   0.0000
@<TRIPOS>BOND
     1    1    2      ar
     2    1    6      ar
     3    2    3      ar
     4    3    4      ar
     5    4    5      ar
     6    4   10       1
     7    5    6      ar
     8    5    8       1
     9    6    7       1
    10    8    9       2
    11    9   10       1
    12   10   11       1
    13   11   12       1
    14   11   21       1
    15   12   13       1
    16   12   14       1
    17   14   15       1
    18   14   20       1
    19   15   16       1
    20   16   17      ar
    21   16   18      ar
    22   16   19      ar
    23   20   21       1
    24   20   22       1
    25   22   23       1
    26   23   24       1
    27   24   25      ar
    28   24   26      ar
    29   24   27       1
    30   27   28       1
    31   28   29      ar
    32   28   30      ar
    33   28   31       1
    34   31   33       1
    35   32   33       1
    36   32   34       1
    37   32   35       1
    38   32   36       1
    39   36   37       1
    40   36   38       1
    41   38   39       2
    42   38   40      am
    43   40   41       1
    44   41   42       1
    45   42   43       1
    46   43   44       2
    47   43   45      am
    48   45   46       1
    49   46   47       1
    50   47   48       1
    51    2   49       1
    52    7   50       1
    53    7   51       1
    54    9   52       1
    55   11   53       1
    56   12   54       1
    57   13   55       1
    58   14   56       1
    59   48   80       1
    60   47   79       1
    61   20   57       1
    62   22   58       1
    63   22   59       1
    64   47   78       1
    65   46   77       1
    66   33   60       1
    67   33   61       1
    68   34   62       1
    69   34   63       1
    70   34   64       1
    71   35   65       1
    72   35   66       1
    73   35   67       1
    74   36   68       1
    75   37   69       1
    76   40   70       1
    77   41   71       1
    78   41   72       1
    79   42   73       1
    80   42   74       1
    81   45   75       1
    82   46   76       1
@<TRIPOS>SUBSTRUCTURE
     1 COA903      1 GROUP             4 A     COA     0 **** COA A 903
