@<TRIPOS>MOLECULE
2x3n_FAD_1_ligand
   84    89     1     0     0
SMALL
NO_CHARGES


@<TRIPOS>ATOM
     1 PA          23.2340    36.8180    24.7380 P.3          1 FAD1371   0.0000
     2 O1A         23.5790    37.4490    23.3170 O.co2        1 FAD1371   0.0000
     3 O2A         22.4590    35.5340    24.7930 O.co2        1 FAD1371  -1.0000
     4 O5B         24.6150    36.7390    25.5210 O.3          1 FAD1371   0.0000
     5 C5B         24.6990    35.9780    26.7610 C.3          1 FAD1371   0.0000
     6 C4B         26.1440    35.5870    26.9980 C.3          1 FAD1371   0.0000
     7 O4B         26.2210    35.0420    28.3260 O.3          1 FAD1371   0.0000
     8 C3B         26.5390    34.4620    26.0300 C.3          1 FAD1371   0.0000
     9 O3B         27.8260    34.7820    25.4870 O.3          1 FAD1371   0.0000
    10 C2B         26.6050    33.2170    26.9260 C.3          1 FAD1371   0.0000
    11 O2B         27.5990    32.2910    26.4760 O.3          1 FAD1371   0.0000
    12 C1B         27.0150    33.8470    28.2500 C.3          1 FAD1371   0.0000
    13 N9A         26.5960    33.0850    29.4480 N.pl3        1 FAD1371   0.0000
    14 C8A         25.3940    32.5290    29.6780 C.2          1 FAD1371   0.0000
    15 N7A         25.4300    31.9340    30.8820 N.2          1 FAD1371   0.0000
    16 C5A         26.6390    32.1250    31.4130 C.ar         1 FAD1371   0.0000
    17 C6A         27.2460    31.7500    32.6170 C.ar         1 FAD1371   0.0000
    18 N6A         26.5820    31.0380    33.5390 N.pl3        1 FAD1371   0.0000
    19 N1A         28.5140    32.1130    32.8400 N.ar         1 FAD1371   0.0000
    20 C2A         29.1940    32.8240    31.9410 C.ar         1 FAD1371   0.0000
    21 N3A         28.6500    33.1910    30.7800 N.ar         1 FAD1371   0.0000
    22 C4A         27.3780    32.8560    30.4950 C.ar         1 FAD1371   0.0000
    23 N1          16.0430    38.0480    18.5530 N.2          1 FAD1371   0.0000
    24 C2          15.0600    38.7410    17.8560 C.2          1 FAD1371   0.0000
    25 O2          14.4000    39.5820    18.4400 O.2          1 FAD1371   0.0000
    26 N3          14.8250    38.4670    16.4900 N.pl3        1 FAD1371   0.0000
    27 C4          15.5650    37.4820    15.8330 C.2          1 FAD1371   0.0000
    28 O4          15.3460    37.2410    14.6420 O.2          1 FAD1371   0.0000
    29 C4X         16.5580    36.8020    16.5390 C.2          1 FAD1371   0.0000
    30 N5          17.3420    35.8380    15.9050 N.2          1 FAD1371   0.0000
    31 C5X         18.0670    34.9450    16.6880 C.ar         1 FAD1371   0.0000
    32 C6          18.5640    33.7960    16.0970 C.ar         1 FAD1371   0.0000
    33 C7          19.2750    32.8810    16.8650 C.ar         1 FAD1371   0.0000
    34 C7M         19.7940    31.6230    16.1580 C.3          1 FAD1371   0.0000
    35 C8          19.4700    33.1080    18.2280 C.ar         1 FAD1371   0.0000
    36 C8M         20.2610    32.1080    19.1070 C.3          1 FAD1371   0.0000
    37 C9          18.9770    34.2730    18.8140 C.ar         1 FAD1371   0.0000
    38 C9A         18.2750    35.2060    18.0430 C.ar         1 FAD1371   0.0000
    39 N10         17.7240    36.3730    18.6000 N.pl3        1 FAD1371   0.0000
    40 C10         16.7830    37.0830    17.8850 C.2          1 FAD1371   0.0000
    41 C1'         17.9390    36.7510    20.0180 C.3          1 FAD1371   0.0000
    42 C2'         19.0140    37.8040    20.1760 C.3          1 FAD1371   0.0000
    43 O2'         20.1980    37.2320    19.6170 O.3          1 FAD1371   0.0000
    44 C3'         19.2050    37.9810    21.6940 C.3          1 FAD1371   0.0000
    45 O3'         18.0180    38.5700    22.2240 O.3          1 FAD1371   0.0000
    46 C4'         20.4050    38.8480    22.0500 C.3          1 FAD1371   0.0000
    47 O4'         21.6530    38.1810    21.7000 O.3          1 FAD1371   0.0000
    48 C5'         20.3710    39.1930    23.5490 C.3          1 FAD1371   0.0000
    49 O5'         21.6400    39.6740    23.9360 O.3          1 FAD1371   0.0000
    50 P           22.2080    39.4510    25.4180 P.3          1 FAD1371   0.0000
    51 O1P         21.1670    39.8730    26.4580 O.co2        1 FAD1371   0.0000
    52 O2P         23.5110    40.1780    25.4870 O.co2        1 FAD1371  -1.0000
    53 O3P         22.3780    37.8750    25.5990 O.3          1 FAD1371   0.0000
    54 H5B1        24.1357    35.1549    26.6889 H            1 FAD1371   0.0000
    55 H5B2        24.3736    36.5390    27.5222 H            1 FAD1371   0.0000
    56 H4B         26.7503    36.3759    26.8981 H            1 FAD1371   0.0000
    57 H3B         25.8580    34.3514    25.3062 H            1 FAD1371   0.0000
    58 H5          28.4930    34.8511    26.2289 H            1 FAD1371   0.0000
    59 H2B         25.7097    32.7774    26.9983 H            1 FAD1371   0.0000
    60 H7          28.4958    32.7334    26.4865 H            1 FAD1371   0.0000
    61 H1B         27.9931    34.0543    28.2705 H            1 FAD1371   0.0000
    62 H8A         24.6085    32.5539    29.0596 H            1 FAD1371   0.0000
    63 H6A1        27.0343    30.7803    34.3928 H            1 FAD1371   0.0000
    64 H6A2        25.6345    30.7647    33.3728 H            1 FAD1371   0.0000
    65 H2A         30.1369    33.0893    32.1423 H            1 FAD1371   0.0000
    66 H13         14.1262    38.9804    15.9919 H            1 FAD1371   0.0000
    67 H14         18.4125    33.6252    15.1234 H            1 FAD1371   0.0000
    68 H7M1        20.2848    31.0502    16.8145 H            1 FAD1371   0.0000
    69 H7M2        19.0227    31.1109    15.7800 H            1 FAD1371   0.0000
    70 H7M3        20.4129    31.8876    15.4184 H            1 FAD1371   0.0000
    71 H8M1        20.2919    32.4437    20.0485 H            1 FAD1371   0.0000
    72 H8M2        19.8095    31.2160    19.0858 H            1 FAD1371   0.0000
    73 H8M3        21.1925    32.0185    18.7543 H            1 FAD1371   0.0000
    74 H21         19.1255    34.4423    19.7883 H            1 FAD1371   0.0000
    75 H1'1        18.2096    35.9360    20.5304 H            1 FAD1371   0.0000
    76 H1'2        17.0819    37.1085    20.3888 H            1 FAD1371   0.0000
    77 H2'         18.7655    38.6626    19.7275 H            1 FAD1371   0.0000
    78 H25         21.0002    37.6016    20.0859 H            1 FAD1371   0.0000
    79 H3'         19.3274    37.0792    22.1085 H            1 FAD1371   0.0000
    80 H27         17.8884    38.2669    23.1681 H            1 FAD1371   0.0000
    81 H4'         20.3451    39.6993    21.5287 H            1 FAD1371   0.0000
    82 H29         22.2075    38.0582    22.5231 H            1 FAD1371   0.0000
    83 H5'1        20.1471    38.3738    24.0770 H            1 FAD1371   0.0000
    84 H5'2        19.6801    39.8964    23.7160 H            1 FAD1371   0.0000
@<TRIPOS>BOND
     1    1    2      ar
     2    1    3      ar
     3    1    4       1
     4    1   53       1
     5    4    5       1
     6    5    6       1
     7    6    7       1
     8    6    8       1
     9    7   12       1
    10    8    9       1
    11    8   10       1
    12   10   11       1
    13   10   12       1
    14   12   13       1
    15   13   14       1
    16   13   22       1
    17   14   15       2
    18   15   16       1
    19   16   17      ar
    20   16   22      ar
    21   17   18       1
    22   17   19      ar
    23   19   20      ar
    24   20   21      ar
    25   21   22      ar
    26   23   24       1
    27   23   40       2
    28   24   25       2
    29   24   26       1
    30   26   27       1
    31   27   28       2
    32   27   29       1
    33   29   30       2
    34   29   40       1
    35   30   31       1
    36   31   32      ar
    37   31   38      ar
    38   32   33      ar
    39   33   34       1
    40   33   35      ar
    41   35   36       1
    42   35   37      ar
    43   37   38      ar
    44   38   39       1
    45   39   40       1
    46   39   41       1
    47   41   42       1
    48   42   43       1
    49   42   44       1
    50   44   45       1
    51   44   46       1
    52   46   47       1
    53   46   48       1
    54   48   49       1
    55   49   50       1
    56   50   51      ar
    57   50   52      ar
    58   50   53       1
    59   48   84       1
    60    5   54       1
    61    5   55       1
    62    6   56       1
    63    8   57       1
    64    9   58       1
    65   10   59       1
    66   11   60       1
    67   12   61       1
    68   14   62       1
    69   18   63       1
    70   18   64       1
    71   20   65       1
    72   26   66       1
    73   32   67       1
    74   34   68       1
    75   34   69       1
    76   34   70       1
    77   36   71       1
    78   36   72       1
    79   36   73       1
    80   37   74       1
    81   41   75       1
    82   41   76       1
    83   42   77       1
    84   43   78       1
    85   44   79       1
    86   45   80       1
    87   46   81       1
    88   47   82       1
    89   48   83       1
@<TRIPOS>SUBSTRUCTURE
     1 FAD1371     1 GROUP             4 A     FAD     0 **** FAD A1371
