@<TRIPOS>MOLECULE
3evc_SAH_1_ligand
   46    48     1     0     0
SMALL
NO_CHARGES


@<TRIPOS>ATOM
     1 N           24.3630    30.1350   -26.9310 N.4          1 SAH901   1.0000
     2 CA          25.4150    31.1580   -27.0270 C.3          1 SAH901   0.0000
     3 CB          26.2150    30.9490   -28.3140 C.3          1 SAH901   0.0000
     4 CG          27.0610    29.6780   -28.2230 C.3          1 SAH901   0.0000
     5 SD          28.1120    29.4130   -29.6970 S.3          1 SAH901   0.0000
     6 C           24.7760    32.5480   -27.0530 C.2          1 SAH901   0.0000
     7 O           25.5470    33.5210   -27.2050 O.co2        1 SAH901   0.0000
     8 OXT         23.5370    32.6070   -26.9060 O.co2        1 SAH901  -1.0000
     9 C5'         29.0540    27.9480   -29.1380 C.3          1 SAH901   0.0000
    10 C4'         30.1970    28.2960   -28.1820 C.3          1 SAH901   0.0000
    11 O4'         30.7260    27.0620   -27.6710 O.3          1 SAH901   0.0000
    12 C3'         31.3440    29.0030   -28.9110 C.3          1 SAH901   0.0000
    13 O3'         31.7490    30.1670   -28.1870 O.3          1 SAH901   0.0000
    14 C2'         32.4560    27.9540   -28.8930 C.3          1 SAH901   0.0000
    15 O2'         33.7240    28.6080   -28.7830 O.3          1 SAH901   0.0000
    16 C1'         32.1420    27.2600   -27.5680 C.3          1 SAH901   0.0000
    17 N9          32.8020    25.9390   -27.4840 N.pl3        1 SAH901   0.0000
    18 C8          33.0150    25.1060   -28.5000 C.2          1 SAH901   0.0000
    19 N7          33.5760    23.9860   -28.0490 N.2          1 SAH901   0.0000
    20 C5          33.7250    24.1060   -26.7340 C.ar         1 SAH901   0.0000
    21 C6          34.2330    23.2820   -25.7380 C.ar         1 SAH901   0.0000
    22 N6          34.7450    22.0930   -26.0420 N.pl3        1 SAH901   0.0000
    23 N1          34.2240    23.7180   -24.4700 N.ar         1 SAH901   0.0000
    24 C2          33.7460    24.9110   -24.1620 C.ar         1 SAH901   0.0000
    25 N3          33.2580    25.7220   -25.0840 N.ar         1 SAH901   0.0000
    26 C4          33.2320    25.3520   -26.3700 C.ar         1 SAH901   0.0000
    27 H1          24.4972    29.5958   -26.0996 H            1 SAH901   0.0000
    28 H2          23.4678    30.5794   -26.8992 H            1 SAH901   0.0000
    29 HA          26.0253    31.0852   -26.2382 H            1 SAH901   0.0000
    30 HB1         26.8168    31.7346   -28.4579 H            1 SAH901   0.0000
    31 HB2         25.5826    30.8681   -29.0844 H            1 SAH901   0.0000
    32 HG1         26.4485    28.8938   -28.1230 H            1 SAH901   0.0000
    33 HG2         27.6512    29.7448   -27.4185 H            1 SAH901   0.0000
    34 H5'1        29.4385    27.4920   -29.9406 H            1 SAH901   0.0000
    35 H5'2        28.4263    27.3260   -28.6700 H            1 SAH901   0.0000
    36 H4'         29.8601    28.8653   -27.4321 H            1 SAH901   0.0000
    37 H3'         31.0846    29.2353   -29.8484 H            1 SAH901   0.0000
    38 H12         30.9650    30.5410   -27.6916 H            1 SAH901   0.0000
    39 H2'         32.4105    27.3312   -29.6741 H            1 SAH901   0.0000
    40 H14         33.6734    29.5082   -29.2154 H            1 SAH901   0.0000
    41 H1'         32.3761    27.8379   -26.7862 H            1 SAH901   0.0000
    42 H16         32.7883    25.2928   -29.4559 H            1 SAH901   0.0000
    43 H17         35.1088    21.5056   -25.3191 H            1 SAH901   0.0000
    44 H18         34.7663    21.7862   -26.9936 H            1 SAH901   0.0000
    45 H19         33.7538    25.2074   -23.2070 H            1 SAH901   0.0000
    46 H20         24.4086    29.5340   -27.7290 H            1 SAH901   0.0000
@<TRIPOS>BOND
     1    1    2       1
     2    2    3       1
     3    2    6       1
     4    3    4       1
     5    4    5       1
     6    5    9       1
     7    6    7      ar
     8    6    8      ar
     9    9   10       1
    10   10   11       1
    11   10   12       1
    12   11   16       1
    13   12   13       1
    14   12   14       1
    15   14   15       1
    16   14   16       1
    17   16   17       1
    18   17   18       1
    19   17   26       1
    20   18   19       2
    21   19   20       1
    22   20   21      ar
    23   20   26      ar
    24   21   22       1
    25   21   23      ar
    26   23   24      ar
    27   24   25      ar
    28   25   26      ar
    29    1   27       1
    30    1   28       1
    31    2   29       1
    32    3   30       1
    33    3   31       1
    34    4   32       1
    35    4   33       1
    36    1   46       1
    37    9   34       1
    38    9   35       1
    39   10   36       1
    40   12   37       1
    41   13   38       1
    42   14   39       1
    43   15   40       1
    44   16   41       1
    45   18   42       1
    46   22   43       1
    47   22   44       1
    48   24   45       1
@<TRIPOS>SUBSTRUCTURE
     1 SAH901      1 GROUP             4 A     SAH     0 **** SAH A 901
