@<TRIPOS>MOLECULE
3u8l_09Q_10_ligand
   39    41     1     0     0
SMALL
NO_CHARGES


@<TRIPOS>ATOM
     1 C1          33.0070    66.8590     5.1400 C.ar         1 09Q211   0.0000
     2 C2          32.5180    66.0930     4.0540 C.ar         1 09Q211   0.0000
     3 C3          33.3180    65.0910     3.4630 C.ar         1 09Q211   0.0000
     4 C4          34.6220    64.8520     3.9280 C.ar         1 09Q211   0.0000
     5 C5          35.1220    65.6180     4.9970 C.ar         1 09Q211   0.0000
     6 C6          34.3290    66.6230     5.5920 C.ar         1 09Q211   0.0000
     7 C7          30.9620    70.1090     6.9120 C.ar         1 09Q211   0.0000
     8 C8          32.0870    68.0950     7.1170 C.ar         1 09Q211   0.0000
     9 C9          32.2180    67.9420     5.7280 C.ar         1 09Q211   0.0000
    10 C10         31.7830    69.0240     4.9240 C.ar         1 09Q211   0.0000
    11 C11         31.1010    70.1240     5.5020 C.ar         1 09Q211   0.0000
    12 C12         31.0240    71.3170     3.3250 C.3          1 09Q211   0.0000
    13 C13         30.0630    70.5630     2.3950 C.3          1 09Q211   0.0000
    14 C14         28.7690    71.3750     2.1310 C.3          1 09Q211   0.0000
    15 C15         28.8550    72.8380     4.1860 C.3          1 09Q211   0.0000
    16 C16         29.8080    72.2480     5.2520 C.3          1 09Q211   0.0000
    17 N1          30.6460    71.1500     4.7400 N.pl3        1 09Q211   0.0000
    18 N2          28.1250    71.8140     3.3910 N.4          1 09Q211   1.0000
    19 N3          31.4520    69.1320     7.6990 N.ar         1 09Q211   0.0000
    20 H1          31.5975    66.2634     3.7024 H            1 09Q211   0.0000
    21 H2          32.9535    64.5470     2.7072 H            1 09Q211   0.0000
    22 H3          35.1884    64.1454     3.5039 H            1 09Q211   0.0000
    23 H4          36.0467    65.4491     5.3381 H            1 09Q211   0.0000
    24 H5          34.7034    67.1729     6.3386 H            1 09Q211   0.0000
    25 H6          30.4732    70.8654     7.3467 H            1 09Q211   0.0000
    26 H7          32.4874    67.3951     7.7084 H            1 09Q211   0.0000
    27 H8          31.9586    69.0117     3.9396 H            1 09Q211   0.0000
    28 H9          31.0025    72.2900     3.0953 H            1 09Q211   0.0000
    29 H10         31.9499    70.9635     3.1918 H            1 09Q211   0.0000
    30 H11         29.8181    69.6912     2.8193 H            1 09Q211   0.0000
    31 H12         30.5223    70.3921     1.5233 H            1 09Q211   0.0000
    32 H13         28.1263    70.8024     1.6220 H            1 09Q211   0.0000
    33 H14         28.9992    72.1821     1.5874 H            1 09Q211   0.0000
    34 H15         29.3949    73.3976     3.5573 H            1 09Q211   0.0000
    35 H16         28.1820    73.4136     4.6505 H            1 09Q211   0.0000
    36 H17         29.2584    71.9002     6.0116 H            1 09Q211   0.0000
    37 H18         30.4072    72.9779     5.5809 H            1 09Q211   0.0000
    38 H19         28.0072    71.0069     3.9696 H            1 09Q211   0.0000
    39 H20         27.2285    72.1914     3.1589 H            1 09Q211   0.0000
@<TRIPOS>BOND
     1    1    2      ar
     2    1    6      ar
     3    1    9       1
     4    2    3      ar
     5    3    4      ar
     6    4    5      ar
     7    5    6      ar
     8    7   11      ar
     9    7   19      ar
    10    8    9      ar
    11    8   19      ar
    12    9   10      ar
    13   10   11      ar
    14   11   17       1
    15   12   13       1
    16   12   17       1
    17   13   14       1
    18   14   18       1
    19   15   16       1
    20   15   18       1
    21   16   17       1
    22    2   20       1
    23    3   21       1
    24    4   22       1
    25    5   23       1
    26    6   24       1
    27    7   25       1
    28    8   26       1
    29   10   27       1
    30   12   28       1
    31   12   29       1
    32   13   30       1
    33   13   31       1
    34   14   32       1
    35   14   33       1
    36   15   34       1
    37   15   35       1
    38   16   36       1
    39   16   37       1
    40   18   38       1
    41   18   39       1
@<TRIPOS>SUBSTRUCTURE
     1 09Q211      1 GROUP             4 H     09Q     0 **** 09Q H 211
