@<TRIPOS>MOLECULE
2vos_ADP_1_ligand
   39    41     1     0     0
SMALL
NO_CHARGES


@<TRIPOS>ATOM
     1 PB          25.4340    12.2500    60.3570 P.3          1 ADP1490   0.0000
     2 O1B         24.3830    11.4320    61.0610 O.co2        1 ADP1490   0.0000
     3 O2B         25.4260    13.6960    60.7680 O.co2        1 ADP1490  -1.0000
     4 O3B         26.8080    11.6550    60.2920 O.co2        1 ADP1490  -1.0000
     5 PA          23.6540    12.2380    57.9860 P.3          1 ADP1490   0.0000
     6 O1A         22.5960    12.8860    58.8670 O.co2        1 ADP1490   0.0000
     7 O2A         23.4160    11.0380    57.0840 O.co2        1 ADP1490  -1.0000
     8 O3A         25.0920    12.1980    58.7680 O.3          1 ADP1490   0.0000
     9 O5'         23.9890    13.4230    56.9260 O.3          1 ADP1490   0.0000
    10 C5'         24.1640    14.8060    57.2670 C.3          1 ADP1490   0.0000
    11 C4'         24.5320    15.5150    55.9450 C.3          1 ADP1490   0.0000
    12 O4'         25.8260    15.0270    55.4950 O.3          1 ADP1490   0.0000
    13 C3'         23.6330    15.1560    54.7640 C.3          1 ADP1490   0.0000
    14 O3'         22.6540    16.1520    54.5480 O.3          1 ADP1490   0.0000
    15 C2'         24.4670    15.1540    53.5140 C.3          1 ADP1490   0.0000
    16 O2'         24.6750    16.5600    53.1430 O.3          1 ADP1490   0.0000
    17 C1'         25.8210    14.7900    54.0650 C.3          1 ADP1490   0.0000
    18 N9          26.2310    13.3610    53.9490 N.pl3        1 ADP1490   0.0000
    19 C8          25.6090    12.2020    54.3510 C.2          1 ADP1490   0.0000
    20 N7          26.4120    11.1300    54.0830 N.2          1 ADP1490   0.0000
    21 C5          27.5940    11.6280    53.6140 C.ar         1 ADP1490   0.0000
    22 C6          28.8830    11.0800    53.1770 C.ar         1 ADP1490   0.0000
    23 N6          29.1070     9.7490    53.1860 N.pl3        1 ADP1490   0.0000
    24 N1          29.7840    11.9590    52.7230 N.ar         1 ADP1490   0.0000
    25 C2          29.6150    13.3030    52.6250 C.ar         1 ADP1490   0.0000
    26 N3          28.4660    13.9010    53.0360 N.ar         1 ADP1490   0.0000
    27 C4          27.4620    13.0900    53.5060 C.ar         1 ADP1490   0.0000
    28 H5'1        24.9000    14.9104    57.9359 H            1 ADP1490   0.0000
    29 H5'2        23.3170    15.1832    57.6416 H            1 ADP1490   0.0000
    30 H4'         24.5584    16.5061    56.0755 H            1 ADP1490   0.0000
    31 H3'         23.2044    14.2635    54.9045 H            1 ADP1490   0.0000
    32 H5          22.0804    15.8926    53.7710 H            1 ADP1490   0.0000
    33 H2'         24.1328    14.5639    52.7791 H            1 ADP1490   0.0000
    34 H7          23.7900    16.9960    52.9795 H            1 ADP1490   0.0000
    35 H1'         26.5158    15.3664    53.6347 H            1 ADP1490   0.0000
    36 H9          24.7050    12.1517    54.7756 H            1 ADP1490   0.0000
    37 H10         29.9901     9.3885    52.8856 H            1 ADP1490   0.0000
    38 H11         28.3899     9.1233    53.4931 H            1 ADP1490   0.0000
    39 H12         30.3501    13.8632    52.2431 H            1 ADP1490   0.0000
@<TRIPOS>BOND
     1    1    2      ar
     2    1    3      ar
     3    1    4      ar
     4    1    8       1
     5    5    6      ar
     6    5    7      ar
     7    5    8       1
     8    5    9       1
     9    9   10       1
    10   10   11       1
    11   11   12       1
    12   11   13       1
    13   12   17       1
    14   13   14       1
    15   13   15       1
    16   15   16       1
    17   15   17       1
    18   17   18       1
    19   18   19       1
    20   18   27       1
    21   19   20       2
    22   20   21       1
    23   21   22      ar
    24   21   27      ar
    25   22   23       1
    26   22   24      ar
    27   24   25      ar
    28   25   26      ar
    29   26   27      ar
    30   25   39       1
    31   23   38       1
    32   23   37       1
    33   10   28       1
    34   10   29       1
    35   11   30       1
    36   13   31       1
    37   14   32       1
    38   15   33       1
    39   16   34       1
    40   17   35       1
    41   19   36       1
@<TRIPOS>SUBSTRUCTURE
     1 ADP1490     1 GROUP             4 A     ADP     0 **** ADP A1490
