@<TRIPOS>MOLECULE
1g9c_BAB_1_ligand
   43    46     1     0     0
SMALL
NO_CHARGES


@<TRIPOS>ATOM
     1 C1          12.0200     1.4170    29.7820 C.ar         1 BAB1292   0.0000
     2 C2          11.3870     2.5150    29.1390 C.ar         1 BAB1292   0.0000
     3 C3          10.5820     2.2990    28.0030 C.ar         1 BAB1292   0.0000
     4 C4          10.4430     0.9980    27.5570 C.ar         1 BAB1292   0.0000
     5 C5          11.0560    -0.0560    28.1860 C.ar         1 BAB1292   0.0000
     6 C6          11.8460     0.1140    29.2930 C.ar         1 BAB1292   0.0000
     7 C7          12.8900     1.6380    30.9990 C.cat        1 BAB1292   0.0000
     8 C8           9.8540    -0.9640    26.3700 C.2          1 BAB1292   0.0000
     9 C9           9.2670    -1.9180    25.3660 C.3          1 BAB1292   0.0000
    10 N1          12.2610     1.8600    32.3390 N.pl3        1 BAB1292   1.0000
    11 N2          14.3860     1.6250    30.8600 N.pl3        1 BAB1292   0.0000
    12 N3           9.6610     0.5070    26.3940 N.2          1 BAB1292   0.0000
    13 N4          10.7320    -1.3300    27.4960 N.pl3        1 BAB1292   0.0000
    14 C1'          9.4270     0.2550    19.5910 C.ar         1 BAB1292   0.0000
    15 C2'         10.7520     0.6470    19.9300 C.ar         1 BAB1292   0.0000
    16 C3'         11.2540     0.3690    21.2070 C.ar         1 BAB1292   0.0000
    17 C4'         10.4270    -0.2820    22.0920 C.ar         1 BAB1292   0.0000
    18 C5'          9.1580    -0.6550    21.7560 C.ar         1 BAB1292   0.0000
    19 C6'          8.6230    -0.4050    20.5190 C.ar         1 BAB1292   0.0000
    20 C7'          8.8840     0.5520    18.2400 C.cat        1 BAB1292   0.0000
    21 C8'          9.4890    -1.3390    23.9830 C.2          1 BAB1292   0.0000
    22 N1'          8.4020    -0.5450    17.3800 N.pl3        1 BAB1292   1.0000
    23 N2'          8.8580     1.9460    17.7280 N.pl3        1 BAB1292   0.0000
    24 N3'         10.7200    -0.6800    23.4880 N.2          1 BAB1292   0.0000
    25 N4'          8.5050    -1.3250    22.8870 N.pl3        1 BAB1292   0.0000
    26 H1          11.5130     3.4417    29.4931 H            1 BAB1292   0.0000
    27 H2          10.1282     3.0584    27.5368 H            1 BAB1292   0.0000
    28 H3          12.2847    -0.6666    29.7382 H            1 BAB1292   0.0000
    29 H4           8.2874    -2.0276    25.5346 H            1 BAB1292   0.0000
    30 H5           9.7192    -2.8070    25.4381 H            1 BAB1292   0.0000
    31 H6          12.8367     2.0061    33.1435 H            1 BAB1292   0.0000
    32 H7          11.2651     1.8622    32.4297 H            1 BAB1292   0.0000
    33 H8          14.9640     1.7708    31.6629 H            1 BAB1292   0.0000
    34 H2'         11.3228     1.1195    19.2584 H            1 BAB1292   0.0000
    35 H3'         12.1824     0.6348    21.4667 H            1 BAB1292   0.0000
    36 H6'          7.6907    -0.6856    20.2908 H            1 BAB1292   0.0000
    37 H1'1         8.0368    -0.3442    16.4710 H            1 BAB1292   0.0000
    38 H1'2         8.4404    -1.4896    17.7059 H            1 BAB1292   0.0000
    39 H2'1         8.4909     2.1376    16.8177 H            1 BAB1292   0.0000
    40 H15         14.8036     1.4705    29.9646 H            1 BAB1292   0.0000
    41 H2'2         9.2075     2.6930    18.2935 H            1 BAB1292   0.0000
    42 H17         11.0448    -2.2469    27.7439 H            1 BAB1292   0.0000
    43 H4'          7.5773    -1.6976    22.9091 H            1 BAB1292   0.0000
@<TRIPOS>BOND
     1    1    2      ar
     2    1    6      ar
     3    1    7       1
     4    2    3      ar
     5    3    4      ar
     6    4    5      ar
     7    4   12       1
     8    5    6      ar
     9    5   13       1
    10    7   10      ar
    11    7   11      ar
    12    8    9       1
    13    8   12       2
    14    8   13       1
    15    9   21       1
    16   14   15      ar
    17   14   19      ar
    18   14   20       1
    19   15   16      ar
    20   16   17      ar
    21   17   18      ar
    22   17   24       1
    23   18   19      ar
    24   18   25       1
    25   20   22      ar
    26   20   23      ar
    27   21   24       2
    28   21   25       1
    29    2   26       1
    30    3   27       1
    31    6   28       1
    32    9   29       1
    33    9   30       1
    34   10   31       1
    35   10   32       1
    36   11   33       1
    37   13   42       1
    38   15   34       1
    39   16   35       1
    40   19   36       1
    41   22   37       1
    42   22   38       1
    43   23   39       1
    44   25   43       1
    45   11   40       1
    46   23   41       1
@<TRIPOS>SUBSTRUCTURE
     1 BAB1292     1 GROUP             4 A     BAB     0 **** BAB A1292
