@<TRIPOS>MOLECULE
2r7n_ADP_1_ligand
   39    41     1     0     0
SMALL
NO_CHARGES


@<TRIPOS>ATOM
     1 PB          15.7540     9.5470    32.3710 P.3          1 ADP400   0.0000
     2 O1B         16.4150    10.8010    31.8350 O.co2        1 ADP400   0.0000
     3 O2B         16.6420     8.7170    33.2790 O.co2        1 ADP400  -1.0000
     4 O3B         15.0200     8.7430    31.3110 O.co2        1 ADP400  -1.0000
     5 PA          14.8150    10.4170    34.8800 P.3          1 ADP400   0.0000
     6 O1A         14.6270    11.9020    35.0850 O.co2        1 ADP400   0.0000
     7 O2A         16.0610     9.6850    35.2980 O.co2        1 ADP400  -1.0000
     8 O3A         14.5640    10.1080    33.3190 O.3          1 ADP400   0.0000
     9 O5'         13.6230     9.6700    35.6420 O.3          1 ADP400   0.0000
    10 C5'         13.6460     8.2560    35.7050 C.3          1 ADP400   0.0000
    11 C4'         12.2020     7.8290    35.8850 C.3          1 ADP400   0.0000
    12 O4'         11.7590     8.2050    37.1940 O.3          1 ADP400   0.0000
    13 C3'         11.2860     8.5450    34.9000 C.3          1 ADP400   0.0000
    14 O3'         11.0830     7.7780    33.7120 O.3          1 ADP400   0.0000
    15 C2'         10.0030     8.7500    35.6810 C.3          1 ADP400   0.0000
    16 O2'          9.1230     7.6400    35.5070 O.3          1 ADP400   0.0000
    17 C1'         10.4730     8.8130    37.1320 C.3          1 ADP400   0.0000
    18 N9          10.5800    10.2410    37.4460 N.pl3        1 ADP400   0.0000
    19 C8          11.5750    11.0700    37.0810 C.2          1 ADP400   0.0000
    20 N7          11.3270    12.3370    37.5130 N.2          1 ADP400   0.0000
    21 C5          10.1440    12.3200    38.1640 C.ar         1 ADP400   0.0000
    22 C6           9.3020    13.3040    38.8770 C.ar         1 ADP400   0.0000
    23 N6           9.6610    14.6080    38.9790 N.pl3        1 ADP400   0.0000
    24 N1           8.1420    12.8670    39.4010 N.ar         1 ADP400   0.0000
    25 C2           7.7560    11.5780    39.3050 C.ar         1 ADP400   0.0000
    26 N3           8.4720    10.6260    38.6840 N.ar         1 ADP400   0.0000
    27 C4           9.6520    10.9370    38.1010 C.ar         1 ADP400   0.0000
    28 H5'1        14.1990     7.9506    36.4802 H            1 ADP400   0.0000
    29 H5'2        14.0191     7.8754    34.8589 H            1 ADP400   0.0000
    30 H4'         12.1216     6.8391    35.7685 H            1 ADP400   0.0000
    31 H3'         11.6789     9.4333    34.6621 H            1 ADP400   0.0000
    32 H5          11.5924     6.9200    33.7781 H            1 ADP400   0.0000
    33 H2'          9.5562     9.6039    35.4140 H            1 ADP400   0.0000
    34 H7           9.6595     6.8103    35.3527 H            1 ADP400   0.0000
    35 H1'          9.8263     8.3555    37.7423 H            1 ADP400   0.0000
    36 H9          12.3850    10.7936    36.5637 H            1 ADP400   0.0000
    37 H10          9.0721    15.2520    39.4673 H            1 ADP400   0.0000
    38 H11         10.5146    14.9254    38.5659 H            1 ADP400   0.0000
    39 H12          6.8852    11.3156    39.7208 H            1 ADP400   0.0000
@<TRIPOS>BOND
     1    1    2      ar
     2    1    3      ar
     3    1    4      ar
     4    1    8       1
     5    5    6      ar
     6    5    7      ar
     7    5    8       1
     8    5    9       1
     9    9   10       1
    10   10   11       1
    11   11   12       1
    12   11   13       1
    13   12   17       1
    14   13   14       1
    15   13   15       1
    16   15   16       1
    17   15   17       1
    18   17   18       1
    19   18   19       1
    20   18   27       1
    21   19   20       2
    22   20   21       1
    23   21   22      ar
    24   21   27      ar
    25   22   23       1
    26   22   24      ar
    27   24   25      ar
    28   25   26      ar
    29   26   27      ar
    30   25   39       1
    31   23   38       1
    32   23   37       1
    33   10   28       1
    34   10   29       1
    35   11   30       1
    36   13   31       1
    37   14   32       1
    38   15   33       1
    39   16   34       1
    40   17   35       1
    41   19   36       1
@<TRIPOS>SUBSTRUCTURE
     1 ADP400      1 GROUP             4 A     ADP     0 **** ADP A 400
