@<TRIPOS>MOLECULE
2jam_J60_1_ligand
   57    59     1     0     0
SMALL
NO_CHARGES


@<TRIPOS>ATOM
     1 CBA         15.6770    10.1890    18.4170 C.3          1 J601305   0.0000
     2 CAZ         15.6390     9.5850    17.0030 C.3          1 J601305   0.0000
     3 NAX         14.8500     8.3270    17.0200 N.4          1 J601305   1.0000
     4 CAY         13.4020     8.5900    16.8300 C.3          1 J601305   0.0000
     5 CBB         13.0890     9.1900    15.4480 C.3          1 J601305   0.0000
     6 CAW         15.3570     7.2790    16.0880 C.3          1 J601305   0.0000
     7 CAV         15.9080     7.7930    14.7330 C.3          1 J601305   0.0000
     8 NAU         15.6110     6.7430    13.7230 N.am         1 J601305   0.0000
     9 CAS         16.5290     5.9020    13.2400 C.2          1 J601305   0.0000
    10 OAT         17.6950     5.9150    13.6200 O.2          1 J601305   0.0000
    11 CAN         16.0640     4.8130    12.2050 C.2          1 J601305   0.0000
    12 CAM         14.7760     4.4150    11.8750 C.2          1 J601305   0.0000
    13 CAQ         13.4740     5.0090    12.4300 C.3          1 J601305   0.0000
    14 CAO         16.9080     3.9930    11.4620 C.2          1 J601305   0.0000
    15 CAR         18.4360     3.9750    11.4520 C.3          1 J601305   0.0000
    16 NAP         16.1860     3.1600    10.7170 N.pl3        1 J601305   0.0000
    17 CAL         14.8780     3.3730    10.9350 C.2          1 J601305   0.0000
    18 CAK         13.7630     2.7290    10.3820 C.2          1 J601305   0.0000
    19 CAG         13.7750     1.6180     9.4950 C.2          1 J601305   0.0000
    20 CAE         12.6190     0.8980     9.1430 C.ar         1 J601305   0.0000
    21 CAD         11.2900     1.0090     9.5230 C.ar         1 J601305   0.0000
    22 CAA         10.3470     0.1250     8.9960 C.ar         1 J601305   0.0000
    23 CL           8.7050     0.2710     9.5060 Cl           1 J601305   0.0000
    24 CAB         10.7220    -0.8790     8.0850 C.ar         1 J601305   0.0000
    25 CAC         12.0610    -0.9940     7.7090 C.ar         1 J601305   0.0000
    26 CAF         13.0060    -0.1020     8.2320 C.ar         1 J601305   0.0000
    27 NAH         14.3310     0.0130     8.0380 N.am         1 J601305   0.0000
    28 CAI         14.8110     1.0150     8.7620 C.2          1 J601305   0.0000
    29 OAJ         16.0140     1.3060     8.7530 O.2          1 J601305   0.0000
    30 HBA1        16.2086    11.0359    18.4035 H            1 J601305   0.0000
    31 HBA2        14.7447    10.3855    18.7207 H            1 J601305   0.0000
    32 HBA3        16.1024     9.5384    19.0461 H            1 J601305   0.0000
    33 HAZ1        16.5715     9.3890    16.6996 H            1 J601305   0.0000
    34 HAZ2        15.2138    10.2361    16.3743 H            1 J601305   0.0000
    35 HAY1        13.0972     9.2310    17.5345 H            1 J601305   0.0000
    36 HAY2        12.9041     7.7280    16.9257 H            1 J601305   0.0000
    37 HBB1        12.1049     9.3486    15.3686 H            1 J601305   0.0000
    38 HBB2        13.5759    10.0571    15.3430 H            1 J601305   0.0000
    39 HBB3        13.3828     8.5542    14.7343 H            1 J601305   0.0000
    40 HAW1        14.6042     6.6498    15.8946 H            1 J601305   0.0000
    41 HAW2        16.0930     6.7857    16.5516 H            1 J601305   0.0000
    42 HAV1        16.8950     7.9405    14.7963 H            1 J601305   0.0000
    43 HAV2        15.4583     8.6500    14.4812 H            1 J601305   0.0000
    44 HAU         14.6726     6.6622    13.3871 H            1 J601305   0.0000
    45 HAQ1        12.6921     4.5363    12.0236 H            1 J601305   0.0000
    46 HAQ2        13.4526     4.8954    13.4233 H            1 J601305   0.0000
    47 HAQ3        13.4290     5.9823    12.2047 H            1 J601305   0.0000
    48 HAR1        18.7569     3.2740    10.8151 H            1 J601305   0.0000
    49 HAR2        18.7780     4.8693    11.1634 H            1 J601305   0.0000
    50 HAR3        18.7730     3.7699    12.3709 H            1 J601305   0.0000
    51 HAP         16.5609     2.4779    10.0892 H            1 J601305   0.0000
    52 HAK         12.8655     3.0883    10.6379 H            1 J601305   0.0000
    53 HAD         11.0091     1.7176    10.1703 H            1 J601305   0.0000
    54 HAB         10.0365    -1.5036     7.7108 H            1 J601305   0.0000
    55 HAC         12.3442    -1.7091     7.0699 H            1 J601305   0.0000
    56 HAH         14.8751    -0.5714     7.4360 H            1 J601305   0.0000
    57 HAX         14.9461     7.9504    17.9414 H            1 J601305   0.0000
@<TRIPOS>BOND
     1    1    2       1
     2    2    3       1
     3    3    4       1
     4    3    6       1
     5    4    5       1
     6    6    7       1
     7    7    8       1
     8    8    9      am
     9    9   10       2
    10    9   11       1
    11   11   12       1
    12   11   14       2
    13   12   13       1
    14   12   17       2
    15   14   15       1
    16   14   16       1
    17   16   17       1
    18   17   18       1
    19   18   19       2
    20   19   20       1
    21   19   28       1
    22   20   21      ar
    23   20   26      ar
    24   21   22      ar
    25   22   23       1
    26   22   24      ar
    27   24   25      ar
    28   25   26      ar
    29   26   27       1
    30   27   28      am
    31   28   29       2
    32    1   30       1
    33    1   31       1
    34    1   32       1
    35    2   33       1
    36    2   34       1
    37    4   35       1
    38    4   36       1
    39    5   37       1
    40    5   38       1
    41    5   39       1
    42    6   40       1
    43    6   41       1
    44    7   42       1
    45    7   43       1
    46    8   44       1
    47   13   45       1
    48   13   46       1
    49   13   47       1
    50   15   48       1
    51   15   49       1
    52   15   50       1
    53   16   51       1
    54   18   52       1
    55   21   53       1
    56   24   54       1
    57   25   55       1
    58   27   56       1
    59    3   57       1
@<TRIPOS>SUBSTRUCTURE
     1 J601305     1 GROUP             4 A     J60     0 **** J60 A1305
