@<TRIPOS>MOLECULE
4qnu_GEK_7_ligand
   52    54     1     0     0
SMALL
NO_CHARGES


@<TRIPOS>ATOM
     1 C          -98.9760    35.1550    22.2520 C.2          1 GEK401   0.0000
     2 N          -96.6060    35.0940    21.6900 N.4          1 GEK401   1.0000
     3 O          -99.9000    35.0700    23.1320 O.co2        1 GEK401   0.0000
     4 N1         -87.3070    37.6940    22.9360 N.ar         1 GEK401   0.0000
     5 C2         -88.3460    36.7330    22.5450 C.ar         1 GEK401   0.0000
     6 N3         -89.4080    36.6820    23.5610 N.ar         1 GEK401   0.0000
     7 C4         -89.2880    37.1650    24.7830 C.ar         1 GEK401   0.0000
     8 C5         -88.2720    37.9390    25.0850 C.ar         1 GEK401   0.0000
     9 C6         -87.2970    38.1480    24.1890 C.ar         1 GEK401   0.0000
    10 N6         -86.2960    38.8970    24.5880 N.pl3        1 GEK401   0.0000
    11 N7         -88.4200    38.2850    26.3680 N.2          1 GEK401   0.0000
    12 C8         -89.5810    37.8050    26.8200 C.2          1 GEK401   0.0000
    13 N9         -90.1200    37.1380    25.8110 N.pl3        1 GEK401   0.0000
    14 CA         -97.5880    34.6580    22.6570 C.3          1 GEK401   0.0000
    15 CB         -97.1970    35.0960    24.0680 C.3          1 GEK401   0.0000
    16 SD         -96.3330    36.9380    25.8580 S.3          1 GEK401   1.0000
    17 CE         -97.3210    38.2410    26.7230 C.3          1 GEK401   0.0000
    18 CG         -97.0520    36.5920    24.2100 C.3          1 GEK401   0.0000
    19 CZ         -98.8090    38.3950    26.2750 C.2          1 GEK401   0.0000
    20 C1'        -91.3530    36.3670    25.7170 C.3          1 GEK401   0.0000
    21 C2'        -91.9450    36.0850    27.0620 C.3          1 GEK401   0.0000
    22 O2'        -91.2080    34.9940    27.6450 O.3          1 GEK401   0.0000
    23 C3'        -93.3740    35.6550    26.6950 C.3          1 GEK401   0.0000
    24 O3'        -93.4430    34.2090    26.4250 O.3          1 GEK401   0.0000
    25 C4'        -93.6570    36.4430    25.3990 C.3          1 GEK401   0.0000
    26 O4'        -92.3840    37.0540    24.9940 O.3          1 GEK401   0.0000
    27 C5'        -94.6490    37.5860    25.6420 C.3          1 GEK401   0.0000
    28 OXT        -99.0800    35.5680    21.0560 O.co2        1 GEK401  -1.0000
    29 OZ1        -99.6850    38.1280    27.1380 O.co2        1 GEK401   0.0000
    30 OZ2        -99.0310    38.9340    25.1650 O.co2        1 GEK401  -1.0000
    31 H1         -95.7016    34.7651    21.9619 H            1 GEK401   0.0000
    32 H2         -96.8380    34.7253    20.7899 H            1 GEK401   0.0000
    33 H3         -88.3333    36.1895    21.7057 H            1 GEK401   0.0000
    34 H4         -86.2745    39.2451    25.5252 H            1 GEK401   0.0000
    35 H5         -85.5547    39.1197    23.9548 H            1 GEK401   0.0000
    36 H6         -89.9657    37.9249    27.7352 H            1 GEK401   0.0000
    37 HA         -97.6064    33.6583    22.6427 H            1 GEK401   0.0000
    38 HB1        -96.3238    34.6688    24.3025 H            1 GEK401   0.0000
    39 HB2        -97.9024    34.7836    24.7043 H            1 GEK401   0.0000
    40 HE1        -96.8655    39.1184    26.5725 H            1 GEK401   0.0000
    41 HE2        -97.3178    38.0270    27.6998 H            1 GEK401   0.0000
    42 HG1        -97.9483    37.0285    24.1325 H            1 GEK401   0.0000
    43 HG2        -96.4472    36.9435    23.4954 H            1 GEK401   0.0000
    44 H1'        -91.1590    35.4992    25.2595 H            1 GEK401   0.0000
    45 H2'        -91.9387    36.8946    27.6490 H            1 GEK401   0.0000
    46 H16        -90.8641    34.3985    26.9190 H            1 GEK401   0.0000
    47 H3'        -94.0183    35.9128    27.4151 H            1 GEK401   0.0000
    48 H18        -92.8365    33.9829    25.6628 H            1 GEK401   0.0000
    49 H4'        -93.9954    35.8314    24.6838 H            1 GEK401   0.0000
    50 H5'1       -94.3805    38.0842    26.4664 H            1 GEK401   0.0000
    51 H5'2       -94.6338    38.2064    24.8578 H            1 GEK401   0.0000
    52 H22        -96.5990    36.0931    21.6493 H            1 GEK401   0.0000
@<TRIPOS>BOND
     1    1    3      ar
     2    1   14       1
     3    1   28      ar
     4    2   14       1
     5    4    5      ar
     6    4    9      ar
     7    5    6      ar
     8    6    7      ar
     9    7    8      ar
    10    7   13       1
    11    8    9      ar
    12    8   11       1
    13    9   10       1
    14   11   12       2
    15   12   13       1
    16   13   20       1
    17   14   15       1
    18   15   18       1
    19   16   17       1
    20   16   18       1
    21   16   27       1
    22   17   19       1
    23   19   29      ar
    24   19   30      ar
    25   20   21       1
    26   20   26       1
    27   21   22       1
    28   21   23       1
    29   23   24       1
    30   23   25       1
    31   25   26       1
    32   25   27       1
    33    2   31       1
    34    2   32       1
    35    2   52       1
    36    5   33       1
    37   10   34       1
    38   10   35       1
    39   12   36       1
    40   14   37       1
    41   15   38       1
    42   15   39       1
    43   17   40       1
    44   17   41       1
    45   18   42       1
    46   18   43       1
    47   20   44       1
    48   21   45       1
    49   22   46       1
    50   23   47       1
    51   24   48       1
    52   25   49       1
    53   27   50       1
    54   27   51       1
@<TRIPOS>SUBSTRUCTURE
     1 GEK401      1 GROUP             4 G     GEK     0 **** GEK G 401
