@<TRIPOS>MOLECULE
1y5r_C0R_1_ligand
   53    56     1     0     0
SMALL
NO_CHARGES


@<TRIPOS>ATOM
     1 C1          73.2830    46.7690    41.8820 C.3          1 C0R11    0.0000
     2 C2          71.8920    46.1700    41.7890 C.3          1 C0R11    0.0000
     3 C3          71.2940    46.2630    43.1900 C.2          1 C0R11    0.0000
     4 C4          71.3940    47.5150    44.0060 C.2          1 C0R11    0.0000
     5 C5          72.2320    48.5630    43.4660 C.2          1 C0R11    0.0000
     6 C6          72.2640    49.9230    44.0730 C.3          1 C0R11    0.0000
     7 C7          73.7250    50.2550    44.3840 C.3          1 C0R11    0.0000
     8 C8          74.6430    50.1420    43.1700 C.3          1 C0R11    0.0000
     9 C9          74.6510    48.6780    42.6590 C.3          1 C0R11    0.0000
    10 C10         73.1780    48.2510    42.2970 C.3          1 C0R11    0.0000
    11 C11         75.6980    48.3890    41.5520 C.3          1 C0R11    0.0000
    12 C12         77.0910    48.8270    42.0220 C.3          1 C0R11    0.0000
    13 C13         77.2160    50.2910    42.4580 C.3          1 C0R11    0.0000
    14 C14         76.1130    50.3050    43.5710 C.3          1 C0R11    0.0000
    15 C15         76.4160    51.6280    44.2560 C.3          1 C0R11    0.0000
    16 C16         77.8920    51.8510    44.1310 C.3          1 C0R11    0.0000
    17 C17         78.4900    50.6960    43.3140 C.3          1 C0R11    0.0000
    18 C18         76.9830    51.3540    41.3640 C.3          1 C0R11    0.0000
    19 C19         72.5710    49.0610    41.1300 C.3          1 C0R11    0.0000
    20 C20         79.7620    51.1380    42.5590 C.2          1 C0R11    0.0000
    21 C21         80.4170    50.0320    41.7570 C.2          1 C0R11    0.0000
    22 O1          70.6890    45.3130    43.6790 O.2          1 C0R11    0.0000
    23 O2          75.4590    48.9690    40.3990 O.3          1 C0R11    0.0000
    24 O3          80.0060    52.2840    42.2950 O.2          1 C0R11    0.0000
    25 O4          80.3390    48.8640    42.3490 O.2          1 C0R11    0.0000
    26 H1          73.7344    46.7032    40.9921 H            1 C0R11    0.0000
    27 H2          73.8164    46.2688    42.5641 H            1 C0R11    0.0000
    28 H3          71.9446    45.2150    41.4972 H            1 C0R11    0.0000
    29 H4          71.3347    46.6869    41.1392 H            1 C0R11    0.0000
    30 H5          70.9092    47.6203    44.8743 H            1 C0R11    0.0000
    31 H6          71.7249    49.9335    44.9152 H            1 C0R11    0.0000
    32 H7          71.8913    50.5924    43.4303 H            1 C0R11    0.0000
    33 H8          74.0508    49.6237    45.0878 H            1 C0R11    0.0000
    34 H9          73.7706    51.1922    44.7299 H            1 C0R11    0.0000
    35 H10         74.3830    50.7840    42.4487 H            1 C0R11    0.0000
    36 H11         74.9160    48.1150    43.4418 H            1 C0R11    0.0000
    37 H12         75.7209    47.4008    41.4005 H            1 C0R11    0.0000
    38 H13         77.7311    48.6751    41.2689 H            1 C0R11    0.0000
    39 H14         77.3479    48.2521    42.7989 H            1 C0R11    0.0000
    40 H15         76.3305    49.5747    44.2186 H            1 C0R11    0.0000
    41 H16         76.1547    51.5843    45.2203 H            1 C0R11    0.0000
    42 H17         75.9165    52.3698    43.8086 H            1 C0R11    0.0000
    43 H18         78.3084    51.8726    45.0399 H            1 C0R11    0.0000
    44 H19         78.0641    52.7188    43.6648 H            1 C0R11    0.0000
    45 H20         78.7212    49.9443    43.9316 H            1 C0R11    0.0000
    46 H21         77.0890    52.2669    41.7583 H            1 C0R11    0.0000
    47 H22         77.6502    51.2285    40.6298 H            1 C0R11    0.0000
    48 H23         76.0588    51.2556    40.9950 H            1 C0R11    0.0000
    49 H24         72.5004    50.0231    41.3933 H            1 C0R11    0.0000
    50 H25         73.1588    48.9779    40.3253 H            1 C0R11    0.0000
    51 H26         71.6608    48.7063    40.9160 H            1 C0R11    0.0000
    52 H27         80.8606    50.1767    40.8725 H            1 C0R11    0.0000
    53 H28         76.1801    48.7288    39.7492 H            1 C0R11    0.0000
@<TRIPOS>BOND
     1    1    2       1
     2    1   10       1
     3    2    3       1
     4    3    4       1
     5    3   22       2
     6    4    5       2
     7    5    6       1
     8    5   10       1
     9    6    7       1
    10    7    8       1
    11    8    9       1
    12    8   14       1
    13    9   10       1
    14    9   11       1
    15   10   19       1
    16   11   12       1
    17   11   23       1
    18   12   13       1
    19   13   14       1
    20   13   17       1
    21   13   18       1
    22   14   15       1
    23   15   16       1
    24   16   17       1
    25   17   20       1
    26   20   21       1
    27   20   24       2
    28   21   25       2
    29    1   26       1
    30    1   27       1
    31    2   28       1
    32    2   29       1
    33    4   30       1
    34    6   31       1
    35    6   32       1
    36    7   33       1
    37    7   34       1
    38    8   35       1
    39    9   36       1
    40   11   37       1
    41   12   38       1
    42   12   39       1
    43   14   40       1
    44   15   41       1
    45   15   42       1
    46   16   43       1
    47   16   44       1
    48   17   45       1
    49   18   46       1
    50   18   47       1
    51   18   48       1
    52   19   49       1
    53   19   50       1
    54   19   51       1
    55   21   52       1
    56   23   53       1
@<TRIPOS>SUBSTRUCTURE
     1 C0R11       1 GROUP             4 A     C0R     0 **** C0R A  11
