@<TRIPOS>MOLECULE
4rwn_APC_1_ligand
   45    47     1     0     0
SMALL
NO_CHARGES


@<TRIPOS>ATOM
     1 PG         -23.1590   -35.0000    30.5950 P.3          1 APC401   0.0000
     2 O1G        -22.0280   -35.5740    31.4170 O.co2        1 APC401   0.0000
     3 O2G        -24.3960   -34.6720    31.3950 O.co2        1 APC401  -1.0000
     4 O3G        -23.4660   -35.7600    29.3250 O.co2        1 APC401  -1.0000
     5 PB         -22.7030   -33.0890    28.5730 P.3          1 APC401   0.0000
     6 O1B        -22.1000   -31.7120    28.4760 O.co2        1 APC401   0.0000
     7 O2B        -22.0560   -34.1670    27.7310 O.co2        1 APC401  -1.0000
     8 O3B        -22.5660   -33.5770    30.1040 O.3          1 APC401   0.0000
     9 PA         -25.0040   -33.5890    26.6770 P.3          1 APC401   0.0000
    10 O1A        -26.5040   -33.4660    26.6050 O.co2        1 APC401   0.0000
    11 O2A        -24.3790   -34.9470    26.4710 O.co2        1 APC401  -1.0000
    12 C3A        -24.4870   -32.9360    28.2820 C.3          1 APC401   0.0000
    13 O5'        -24.3990   -32.6250    25.5420 O.3          1 APC401   0.0000
    14 C5'        -23.1200   -32.9160    24.9910 C.3          1 APC401   0.0000
    15 C4'        -22.4930   -31.6500    24.4290 C.3          1 APC401   0.0000
    16 O4'        -23.3310   -31.0490    23.4390 O.3          1 APC401   0.0000
    17 C3'        -22.2740   -30.5720    25.4790 C.3          1 APC401   0.0000
    18 O3'        -21.0560   -30.7510    26.2030 O.3          1 APC401   0.0000
    19 C2'        -22.2000   -29.3370    24.6130 C.3          1 APC401   0.0000
    20 O2'        -20.8790   -29.2260    24.0770 O.3          1 APC401   0.0000
    21 C1'        -23.1850   -29.6270    23.4920 C.3          1 APC401   0.0000
    22 N9         -24.4760   -28.9810    23.8320 N.pl3        1 APC401   0.0000
    23 C8         -25.4080   -29.4610    24.6790 C.2          1 APC401   0.0000
    24 N7         -26.4630   -28.6170    24.7800 N.2          1 APC401   0.0000
    25 C5         -26.2120   -27.5600    23.9890 C.ar         1 APC401   0.0000
    26 C6         -26.9080   -26.3020    23.6320 C.ar         1 APC401   0.0000
    27 N6         -28.1190   -25.9970    24.1500 N.pl3        1 APC401   0.0000
    28 N1         -26.2940   -25.4690    22.7600 N.ar         1 APC401   0.0000
    29 C2         -25.0880   -25.7570    22.2370 C.ar         1 APC401   0.0000
    30 N3         -24.4000   -26.8780    22.5210 N.ar         1 APC401   0.0000
    31 C4         -24.9010   -27.8040    23.3690 C.ar         1 APC401   0.0000
    32 H3A1       -24.7346   -31.9682    28.3263 H            1 APC401   0.0000
    33 H3A2       -24.9705   -33.4370    28.9999 H            1 APC401   0.0000
    34 H5'1       -23.2209   -33.5887    24.2580 H            1 APC401   0.0000
    35 H5'2       -22.5287   -33.2886    25.7062 H            1 APC401   0.0000
    36 H4'        -21.6135   -31.8808    24.0128 H            1 APC401   0.0000
    37 H3'        -23.0536   -30.5213    26.1033 H            1 APC401   0.0000
    38 H7         -21.2270   -31.3195    27.0077 H            1 APC401   0.0000
    39 H2'        -22.4578   -28.5165    25.1233 H            1 APC401   0.0000
    40 H9         -20.8202   -28.4103    23.5016 H            1 APC401   0.0000
    41 H1'        -22.8375   -29.2781    22.6217 H            1 APC401   0.0000
    42 H11        -25.3307   -30.3288    25.1699 H            1 APC401   0.0000
    43 H12        -28.5709   -25.1421    23.8952 H            1 APC401   0.0000
    44 H13        -28.5628   -26.6263    24.7880 H            1 APC401   0.0000
    45 H14        -24.6803   -25.1012    21.6017 H            1 APC401   0.0000
@<TRIPOS>BOND
     1    1    2      ar
     2    1    3      ar
     3    1    4      ar
     4    1    8       1
     5    5    6      ar
     6    5    7      ar
     7    5    8       1
     8    5   12       1
     9    9   10      ar
    10    9   11      ar
    11    9   12       1
    12    9   13       1
    13   13   14       1
    14   14   15       1
    15   15   16       1
    16   15   17       1
    17   16   21       1
    18   17   18       1
    19   17   19       1
    20   19   20       1
    21   19   21       1
    22   21   22       1
    23   22   23       1
    24   22   31       1
    25   23   24       2
    26   24   25       1
    27   25   26      ar
    28   25   31      ar
    29   26   27       1
    30   26   28      ar
    31   28   29      ar
    32   29   30      ar
    33   30   31      ar
    34   29   45       1
    35   27   44       1
    36   27   43       1
    37   23   42       1
    38   12   32       1
    39   12   33       1
    40   14   34       1
    41   14   35       1
    42   15   36       1
    43   17   37       1
    44   18   38       1
    45   19   39       1
    46   20   40       1
    47   21   41       1
@<TRIPOS>SUBSTRUCTURE
     1 APC401      1 GROUP             4 A     APC     0 **** APC A 401
