@<TRIPOS>MOLECULE
1lc3_NAD_1_ligand
   70    74     1     0     0
SMALL
NO_CHARGES


@<TRIPOS>ATOM
     1 PA          32.6370    16.8400    62.2080 P.3          1 NAD900   0.0000
     2 O1A         32.9070    15.4820    61.6540 O.co2        1 NAD900   0.0000
     3 O2A         33.1550    16.9980    63.6430 O.co2        1 NAD900  -1.0000
     4 O5B         31.1380    17.1680    62.1270 O.3          1 NAD900   0.0000
     5 C5B         30.0770    16.4620    62.8960 C.3          1 NAD900   0.0000
     6 C4B         28.7210    16.8630    62.4580 C.3          1 NAD900   0.0000
     7 O4B         28.5980    18.3260    62.3520 O.3          1 NAD900   0.0000
     8 C3B         28.1990    16.3360    61.0570 C.3          1 NAD900   0.0000
     9 O3B         26.7980    15.8990    61.1930 O.3          1 NAD900   0.0000
    10 C2B         28.3650    17.4800    60.1060 C.3          1 NAD900   0.0000
    11 O2B         27.6420    17.4480    58.9360 O.3          1 NAD900   0.0000
    12 C1B         28.0750    18.6380    61.1180 C.3          1 NAD900   0.0000
    13 N9A         28.6670    19.8900    60.7570 N.pl3        1 NAD900   0.0000
    14 C8A         29.9840    20.2490    60.5500 C.2          1 NAD900   0.0000
    15 N7A         30.1770    21.5080    60.2260 N.2          1 NAD900   0.0000
    16 C5A         28.9280    22.0780    60.2000 C.ar         1 NAD900   0.0000
    17 C6A         28.4760    23.5040    59.8950 C.ar         1 NAD900   0.0000
    18 N6A         29.2590    24.5080    59.5820 N.pl3        1 NAD900   0.0000
    19 N1A         27.0600    23.6690    59.9830 N.ar         1 NAD900   0.0000
    20 C2A         26.1730    22.7230    60.2910 C.ar         1 NAD900   0.0000
    21 N3A         26.5700    21.3770    60.5820 N.ar         1 NAD900   0.0000
    22 C4A         27.9800    21.0950    60.5240 C.ar         1 NAD900   0.0000
    23 O3          33.4580    17.7760    61.2570 O.3          1 NAD900   0.0000
    24 PN          33.2590    18.2940    59.7270 P.3          1 NAD900   0.0000
    25 O1N         31.9850    17.9460    59.1640 O.co2        1 NAD900   0.0000
    26 O2N         34.4490    17.6510    59.1480 O.co2        1 NAD900  -1.0000
    27 O5D         33.6370    19.7990    59.5330 O.3          1 NAD900   0.0000
    28 C5D         34.4550    20.5700    60.3770 C.3          1 NAD900   0.0000
    29 C4D         34.8570    21.8210    59.7060 C.3          1 NAD900   0.0000
    30 O4D         34.4680    21.7330    58.2140 O.3          1 NAD900   0.0000
    31 C3D         34.0010    23.0550    60.1500 C.3          1 NAD900   0.0000
    32 O3D         34.8290    24.1120    60.0940 O.3          1 NAD900   0.0000
    33 C2D         32.8160    23.0800    59.1480 C.3          1 NAD900   0.0000
    34 O2D         32.1490    24.2820    59.1310 O.3          1 NAD900   0.0000
    35 C1D         33.5650    22.7470    57.8820 C.3          1 NAD900   0.0000
    36 N1N         32.7410    22.2660    56.7030 N.ar         1 NAD900   1.0000
    37 C2N         32.1650    20.9590    56.6720 C.ar         1 NAD900   0.0000
    38 C3N         31.4560    20.7000    55.5130 C.ar         1 NAD900   0.0000
    39 C7N         30.8270    19.2130    55.5320 C.2          1 NAD900   0.0000
    40 O7N         30.1600    18.8600    54.5330 O.2          1 NAD900   0.0000
    41 N7N         31.0630    18.4090    56.6560 N.am         1 NAD900   0.0000
    42 C4N         31.2710    21.5910    54.4140 C.ar         1 NAD900   0.0000
    43 C5N         31.9100    22.8800    54.5830 C.ar         1 NAD900   0.0000
    44 C6N         32.6390    23.2190    55.7150 C.ar         1 NAD900   0.0000
    45 H5B1        30.1813    16.6799    63.8664 H            1 NAD900   0.0000
    46 H5B2        30.1820    15.4765    62.7625 H            1 NAD900   0.0000
    47 H4B         28.0747    16.5553    63.1563 H            1 NAD900   0.0000
    48 H3B         28.7627    15.5663    60.7572 H            1 NAD900   0.0000
    49 H5          26.4656    15.5659    60.3107 H            1 NAD900   0.0000
    50 H2B         29.3332    17.5297    59.8606 H            1 NAD900   0.0000
    51 H7          27.8446    18.2653    58.3965 H            1 NAD900   0.0000
    52 H1B         27.0858    18.7571    61.2032 H            1 NAD900   0.0000
    53 H8A         30.7373    19.5975    60.6402 H            1 NAD900   0.0000
    54 H6A1        28.8670    25.4095    59.3987 H            1 NAD900   0.0000
    55 H6A2        30.2482    24.3722    59.5266 H            1 NAD900   0.0000
    56 H2A         25.2018    22.9594    60.3199 H            1 NAD900   0.0000
    57 H5D1        35.2731    20.0450    60.6117 H            1 NAD900   0.0000
    58 H5D2        33.9505    20.7917    61.2114 H            1 NAD900   0.0000
    59 H4D         35.8351    21.9966    59.8179 H            1 NAD900   0.0000
    60 H3D         33.6644    22.9266    61.0828 H            1 NAD900   0.0000
    61 H17         35.6009    23.9639    60.7122 H            1 NAD900   0.0000
    62 H2D         32.1761    22.3427    59.3646 H            1 NAD900   0.0000
    63 H19         32.5657    24.8848    58.4506 H            1 NAD900   0.0000
    64 H1D         34.0837    23.5536    57.5986 H            1 NAD900   0.0000
    65 H2N         32.2646    20.2969    57.4148 H            1 NAD900   0.0000
    66 H7N1        30.6864    17.4835    56.6967 H            1 NAD900   0.0000
    67 H7N2        31.6079    18.7610    57.4170 H            1 NAD900   0.0000
    68 H4N         30.7462    21.3470    53.5985 H            1 NAD900   0.0000
    69 H5N         31.8221    23.5561    53.8514 H            1 NAD900   0.0000
    70 H6N         33.0710    24.1160    55.8084 H            1 NAD900   0.0000
@<TRIPOS>BOND
     1    1    2      ar
     2    1    3      ar
     3    1    4       1
     4    1   23       1
     5    4    5       1
     6    5    6       1
     7    6    7       1
     8    6    8       1
     9    7   12       1
    10    8    9       1
    11    8   10       1
    12   10   11       1
    13   10   12       1
    14   12   13       1
    15   13   14       1
    16   13   22       1
    17   14   15       2
    18   15   16       1
    19   16   17      ar
    20   16   22      ar
    21   17   18       1
    22   17   19      ar
    23   19   20      ar
    24   20   21      ar
    25   21   22      ar
    26   23   24       1
    27   24   25      ar
    28   24   26      ar
    29   24   27       1
    30   27   28       1
    31   28   29       1
    32   29   30       1
    33   29   31       1
    34   30   35       1
    35   31   32       1
    36   31   33       1
    37   33   34       1
    38   33   35       1
    39   35   36       1
    40   36   37      ar
    41   36   44      ar
    42   37   38      ar
    43   38   39       1
    44   38   42      ar
    45   39   40       2
    46   39   41      am
    47   42   43      ar
    48   43   44      ar
    49   44   70       1
    50    5   45       1
    51    5   46       1
    52    6   47       1
    53    8   48       1
    54    9   49       1
    55   10   50       1
    56   11   51       1
    57   12   52       1
    58   14   53       1
    59   18   54       1
    60   18   55       1
    61   20   56       1
    62   43   69       1
    63   28   57       1
    64   28   58       1
    65   29   59       1
    66   31   60       1
    67   32   61       1
    68   33   62       1
    69   34   63       1
    70   35   64       1
    71   37   65       1
    72   41   66       1
    73   41   67       1
    74   42   68       1
@<TRIPOS>SUBSTRUCTURE
     1 NAD900      1 GROUP             4 A     NAD     0 **** NAD A 900
