@<TRIPOS>MOLECULE
4egn_TWO_1_ligand
   22    22     1     0     0
SMALL
NO_CHARGES


@<TRIPOS>ATOM
     1 O1          -1.0380    13.2610   -24.2230 O.co2        1 TWO504   0.0000
     2 C7          -1.0080    13.8670   -23.1020 C.2          1 TWO504   0.0000
     3 O2           0.0670    14.0290   -22.4580 O.co2        1 TWO504  -1.0000
     4 C5          -2.2500    14.4210   -22.4830 C.ar         1 TWO504   0.0000
     5 C4          -2.1550    15.3570   -21.4140 C.ar         1 TWO504   0.0000
     6 C3          -3.2950    15.9040   -20.8210 C.ar         1 TWO504   0.0000
     7 O4          -3.1910    16.8140   -19.7970 O.3          1 TWO504   0.0000
     8 C9          -2.5910    16.5240   -18.5600 C.3          1 TWO504   0.0000
     9 C2          -4.5370    15.5670   -21.3340 C.ar         1 TWO504   0.0000
    10 O3          -5.6150    16.0890   -20.7400 O.3          1 TWO504   0.0000
    11 C8          -6.9040    15.6540   -21.1320 C.3          1 TWO504   0.0000
    12 C1          -4.6370    14.6300   -22.3880 C.ar         1 TWO504   0.0000
    13 C6          -3.5010    14.0920   -22.9860 C.ar         1 TWO504   0.0000
    14 H1          -1.2522    15.6286   -21.0806 H            1 TWO504   0.0000
    15 H2          -2.6295    17.3328   -17.9731 H            1 TWO504   0.0000
    16 H3          -3.0798    15.7701   -18.1210 H            1 TWO504   0.0000
    17 H4          -1.6367    16.2628   -18.7055 H            1 TWO504   0.0000
    18 H5          -7.5962    16.1375   -20.5962 H            1 TWO504   0.0000
    19 H6          -7.0397    15.8471   -22.1038 H            1 TWO504   0.0000
    20 H7          -6.9865    14.6702   -20.9729 H            1 TWO504   0.0000
    21 H8          -5.5409    14.3484   -22.7100 H            1 TWO504   0.0000
    22 H9          -3.5853    13.4756   -23.7689 H            1 TWO504   0.0000
@<TRIPOS>BOND
     1    1    2      ar
     2    2    3      ar
     3    2    4       1
     4    4    5      ar
     5    4   13      ar
     6    5    6      ar
     7    6    7       1
     8    6    9      ar
     9    7    8       1
    10    9   10       1
    11    9   12      ar
    12   10   11       1
    13   12   13      ar
    14   13   22       1
    15    5   14       1
    16    8   15       1
    17    8   16       1
    18    8   17       1
    19   11   18       1
    20   11   19       1
    21   11   20       1
    22   12   21       1
@<TRIPOS>SUBSTRUCTURE
     1 TWO504      1 GROUP             4 A     TWO     0 **** TWO A 504
