@<TRIPOS>MOLECULE
1p72_THM_1_ligand
   31    32     1     0     0
SMALL
NO_CHARGES


@<TRIPOS>ATOM
     1 O5'         24.5060    15.7580    43.6410 O.3          1 THM701   0.0000
     2 C5'         23.1890    15.2340    43.4880 C.3          1 THM701   0.0000
     3 C4'         22.3810    16.0630    42.4810 C.3          1 THM701   0.0000
     4 O4'         22.1590    17.3580    43.0240 O.3          1 THM701   0.0000
     5 C3'         23.0460    16.2810    41.1240 C.3          1 THM701   0.0000
     6 O3'         22.0380    16.2210    40.1090 O.3          1 THM701   0.0000
     7 C2'         23.6200    17.6950    41.1870 C.3          1 THM701   0.0000
     8 C1'         22.7170    18.3820    42.1990 C.3          1 THM701   0.0000
     9 N1          23.3180    19.3480    43.1180 N.pl3        1 THM701   0.0000
    10 C2          22.9230    20.7090    42.9950 C.2          1 THM701   0.0000
    11 O2          22.1390    21.0910    42.0840 O.2          1 THM701   0.0000
    12 N3          23.4030    21.6220    43.8410 N.pl3        1 THM701   0.0000
    13 C4          24.2430    21.2720    44.8230 C.2          1 THM701   0.0000
    14 O4          24.6530    22.1650    45.5750 O.2          1 THM701   0.0000
    15 C5          24.6840    19.8560    44.9900 C.2          1 THM701   0.0000
    16 C5M         25.6470    19.4200    46.0880 C.3          1 THM701   0.0000
    17 C6          24.1550    18.9330    44.0980 C.2          1 THM701   0.0000
    18 H5'         24.8339    15.5704    44.5669 H            1 THM701   0.0000
    19 H5'1        22.7249    15.2521    44.3736 H            1 THM701   0.0000
    20 H5'2        23.2483    14.2905    43.1620 H            1 THM701   0.0000
    21 H4'         21.4963    15.6196    42.3371 H            1 THM701   0.0000
    22 H3'         23.7650    15.6054    40.9605 H            1 THM701   0.0000
    23 H6          22.0117    17.0893    39.6136 H            1 THM701   0.0000
    24 H2'1        23.5685    18.1444    40.2952 H            1 THM701   0.0000
    25 H2'2        24.5695    17.6844    41.5006 H            1 THM701   0.0000
    26 H1'         21.9731    18.8331    41.7060 H            1 THM701   0.0000
    27 H10         23.1321    22.5793    43.7405 H            1 THM701   0.0000
    28 H5M1        25.8074    18.4354    46.0191 H            1 THM701   0.0000
    29 H5M2        26.5141    19.9071    45.9836 H            1 THM701   0.0000
    30 H5M3        25.2513    19.6315    46.9817 H            1 THM701   0.0000
    31 H14         24.3914    17.9647    44.1790 H            1 THM701   0.0000
@<TRIPOS>BOND
     1    1    2       1
     2    2    3       1
     3    3    4       1
     4    3    5       1
     5    4    8       1
     6    5    6       1
     7    5    7       1
     8    7    8       1
     9    8    9       1
    10    9   10       1
    11    9   17       1
    12   10   11       2
    13   10   12       1
    14   12   13       1
    15   13   14       2
    16   13   15       1
    17   15   16       1
    18   15   17       2
    19    1   18       1
    20    2   19       1
    21    2   20       1
    22    3   21       1
    23    5   22       1
    24    6   23       1
    25    7   24       1
    26    7   25       1
    27    8   26       1
    28   12   27       1
    29   16   28       1
    30   16   29       1
    31   16   30       1
    32   17   31       1
@<TRIPOS>SUBSTRUCTURE
     1 THM701      1 GROUP             4 A     THM     0 **** THM A 701
