@<TRIPOS>MOLECULE
4k28_NAD_1_ligand
   70    74     1     0     0
SMALL
NO_CHARGES


@<TRIPOS>ATOM
     1 PA          -7.7760     2.0360    -9.8280 P.3          1 NAD301   0.0000
     2 O1A         -6.6190     2.4540    -9.2780 O.co2        1 NAD301   0.0000
     3 O2A         -8.2670     2.8950   -10.8240 O.co2        1 NAD301  -1.0000
     4 O5B         -8.7770     2.0010    -8.7680 O.3          1 NAD301   0.0000
     5 C5B         -8.6250     1.3270    -7.6210 C.3          1 NAD301   0.0000
     6 C4B         -9.3000     1.9650    -6.4570 C.3          1 NAD301   0.0000
     7 O4B         -9.0660     1.1900    -5.3370 O.3          1 NAD301   0.0000
     8 C3B         -8.7250     3.3350    -6.1580 C.3          1 NAD301   0.0000
     9 O3B         -9.7250     4.2650    -6.1670 O.3          1 NAD301   0.0000
    10 C2B         -8.1850     3.1020    -4.7680 C.3          1 NAD301   0.0000
    11 O2B         -8.2700     4.2160    -4.0160 O.3          1 NAD301   0.0000
    12 C1B         -9.1070     1.9590    -4.2920 C.3          1 NAD301   0.0000
    13 N9A         -8.7100     1.2940    -3.0210 N.pl3        1 NAD301   0.0000
    14 C8A         -7.4930     1.0540    -2.6630 C.2          1 NAD301   0.0000
    15 N7A         -7.4610     0.4980    -1.5170 N.2          1 NAD301   0.0000
    16 C5A         -8.6700     0.3090    -1.1320 C.ar         1 NAD301   0.0000
    17 C6A         -9.2480    -0.2360    -0.0150 C.ar         1 NAD301   0.0000
    18 N6A         -8.5500    -0.7480     0.9590 N.pl3        1 NAD301   0.0000
    19 N1A        -10.5340    -0.2390     0.0980 N.ar         1 NAD301   0.0000
    20 C2A        -11.2640     0.2410    -0.8190 C.ar         1 NAD301   0.0000
    21 N3A        -10.7530     0.7660    -1.8780 N.ar         1 NAD301   0.0000
    22 C4A         -9.4620     0.8330    -2.0800 C.ar         1 NAD301   0.0000
    23 O3          -7.6170     0.6780   -10.5150 O.3          1 NAD301   0.0000
    24 PN          -8.5510    -0.1080   -11.3490 P.3          1 NAD301   0.0000
    25 O1N         -8.2330     0.0080   -12.6130 O.co2        1 NAD301   0.0000
    26 O2N         -9.8570     0.0630   -11.0100 O.co2        1 NAD301  -1.0000
    27 O5D         -8.2990    -1.4840   -11.1230 O.3          1 NAD301   0.0000
    28 C5D         -8.3550    -2.1030    -9.8750 C.3          1 NAD301   0.0000
    29 C4D         -8.1060    -3.5980    -9.8150 C.3          1 NAD301   0.0000
    30 O4D         -8.9550    -4.2540   -10.7320 O.3          1 NAD301   0.0000
    31 C3D         -6.6920    -4.0500   -10.1660 C.3          1 NAD301   0.0000
    32 O3D         -6.2750    -5.1490    -9.4080 O.3          1 NAD301   0.0000
    33 C2D         -6.9210    -4.4890   -11.5970 C.3          1 NAD301   0.0000
    34 O2D         -5.9070    -5.3130   -11.9640 O.3          1 NAD301   0.0000
    35 C1D         -8.2240    -5.2000   -11.4720 C.3          1 NAD301   0.0000
    36 N1N         -8.9970    -5.4600   -12.7050 N.ar         1 NAD301   1.0000
    37 C2N         -9.5760    -6.6970   -12.9930 C.ar         1 NAD301   0.0000
    38 C3N        -10.3240    -6.8970   -14.1650 C.ar         1 NAD301   0.0000
    39 C7N        -10.9900    -8.1980   -14.5430 C.2          1 NAD301   0.0000
    40 O7N        -11.5350    -8.3050   -15.6140 O.2          1 NAD301   0.0000
    41 N7N        -10.9620    -9.1510   -13.6680 N.am         1 NAD301   0.0000
    42 C4N        -10.5200    -5.8550   -15.0330 C.ar         1 NAD301   0.0000
    43 C5N         -9.9480    -4.6530   -14.7510 C.ar         1 NAD301   0.0000
    44 C6N         -9.1980    -4.4640   -13.5980 C.ar         1 NAD301   0.0000
    45 H5B1        -7.6474     1.2603    -7.4213 H            1 NAD301   0.0000
    46 H5B2        -9.0039     0.4095    -7.7415 H            1 NAD301   0.0000
    47 H4B        -10.2830     2.0350    -6.6265 H            1 NAD301   0.0000
    48 H3B         -7.9959     3.5745    -6.7992 H            1 NAD301   0.0000
    49 H5         -10.4040     4.0311    -5.4711 H            1 NAD301   0.0000
    50 H2B         -7.2372     2.7863    -4.8132 H            1 NAD301   0.0000
    51 H7          -9.1494     4.2307    -3.5402 H            1 NAD301   0.0000
    52 H1B        -10.0358     2.3158    -4.1917 H            1 NAD301   0.0000
    53 H8A         -6.6857     1.2744    -3.2104 H            1 NAD301   0.0000
    54 H6A1        -9.0131    -1.1354     1.7562 H            1 NAD301   0.0000
    55 H6A2        -7.5513    -0.7535     0.9093 H            1 NAD301   0.0000
    56 H2A        -12.2585     0.2117    -0.7185 H            1 NAD301   0.0000
    57 H5D1        -9.2674    -1.9374    -9.5006 H            1 NAD301   0.0000
    58 H5D2        -7.6710    -1.6632    -9.2930 H            1 NAD301   0.0000
    59 H4D         -8.3235    -3.9200    -8.8936 H            1 NAD301   0.0000
    60 H3D         -6.0388    -3.2948   -10.1116 H            1 NAD301   0.0000
    61 H17         -5.2828    -5.1142    -9.2883 H            1 NAD301   0.0000
    62 H2D         -6.9924    -3.7035   -12.2117 H            1 NAD301   0.0000
    63 H19         -6.0451    -5.6114   -12.9084 H            1 NAD301   0.0000
    64 H1D         -8.1121    -6.0432   -10.9462 H            1 NAD301   0.0000
    65 H2N         -9.4560    -7.4555   -12.3525 H            1 NAD301   0.0000
    66 H7N1       -11.3900   -10.0311   -13.8734 H            1 NAD301   0.0000
    67 H7N2       -10.5123    -9.0073   -12.7864 H            1 NAD301   0.0000
    68 H4N        -11.0726    -5.9756   -15.8576 H            1 NAD301   0.0000
    69 H5N        -10.0702    -3.8908   -15.3867 H            1 NAD301   0.0000
    70 H6N         -8.7948    -3.5658   -13.4227 H            1 NAD301   0.0000
@<TRIPOS>BOND
     1    1    2      ar
     2    1    3      ar
     3    1    4       1
     4    1   23       1
     5    4    5       1
     6    5    6       1
     7    6    7       1
     8    6    8       1
     9    7   12       1
    10    8    9       1
    11    8   10       1
    12   10   11       1
    13   10   12       1
    14   12   13       1
    15   13   14       1
    16   13   22       1
    17   14   15       2
    18   15   16       1
    19   16   17      ar
    20   16   22      ar
    21   17   18       1
    22   17   19      ar
    23   19   20      ar
    24   20   21      ar
    25   21   22      ar
    26   23   24       1
    27   24   25      ar
    28   24   26      ar
    29   24   27       1
    30   27   28       1
    31   28   29       1
    32   29   30       1
    33   29   31       1
    34   30   35       1
    35   31   32       1
    36   31   33       1
    37   33   34       1
    38   33   35       1
    39   35   36       1
    40   36   37      ar
    41   36   44      ar
    42   37   38      ar
    43   38   39       1
    44   38   42      ar
    45   39   40       2
    46   39   41      am
    47   42   43      ar
    48   43   44      ar
    49   44   70       1
    50    5   45       1
    51    5   46       1
    52    6   47       1
    53    8   48       1
    54    9   49       1
    55   10   50       1
    56   11   51       1
    57   12   52       1
    58   14   53       1
    59   18   54       1
    60   18   55       1
    61   20   56       1
    62   43   69       1
    63   28   57       1
    64   28   58       1
    65   29   59       1
    66   31   60       1
    67   32   61       1
    68   33   62       1
    69   34   63       1
    70   35   64       1
    71   37   65       1
    72   41   66       1
    73   41   67       1
    74   42   68       1
@<TRIPOS>SUBSTRUCTURE
     1 NAD301      1 GROUP             4 A     NAD     0 **** NAD A 301
