@<TRIPOS>MOLECULE
3e33_ED7_1_ligand
   65    68     1     0     0
SMALL
NO_CHARGES


@<TRIPOS>ATOM
     1 CAA        -71.8850   -23.2640     0.7900 C.3          1 ED71003   0.0000
     2 CBA        -72.3910   -21.9580     0.1560 C.ar         1 ED71003   0.0000
     3 CAL        -73.7140   -21.5610     0.3360 C.ar         1 ED71003   0.0000
     4 CAJ        -74.1680   -20.3720    -0.2320 C.ar         1 ED71003   0.0000
     5 CAK        -73.3150   -19.5660    -0.9800 C.ar         1 ED71003   0.0000
     6 CAQ        -71.9930   -19.9620    -1.1580 C.ar         1 ED71003   0.0000
     7 CBF        -71.5370   -21.1490    -0.5850 C.ar         1 ED71003   0.0000
     8 SBJ        -69.8820   -21.6130    -0.8410 S.o2         1 ED71003   0.0000
     9 OAD        -69.2400   -20.5650    -1.7030 O.2          1 ED71003   0.0000
    10 OAE        -69.8620   -22.9270    -1.5850 O.2          1 ED71003   0.0000
    11 NBH        -69.0560   -21.8160     0.5950 N.3          1 ED71003   0.0000
    12 CAX        -67.6240   -22.0310     0.2670 C.3          1 ED71003   0.0000
    13 CBC        -66.8660   -22.4000     1.5280 C.ar         1 ED71003   0.0000
    14 CAM        -65.6380   -21.8070     1.7900 C.ar         1 ED71003   0.0000
    15 CAH        -64.9590   -22.1460     2.9520 C.ar         1 ED71003   0.0000
    16 CAG        -65.4960   -23.0610     3.8520 C.ar         1 ED71003   0.0000
    17 CAI        -66.7290   -23.6460     3.5820 C.ar         1 ED71003   0.0000
    18 CAN        -67.4150   -23.3140     2.4210 C.ar         1 ED71003   0.0000
    19 CAW        -69.2990   -20.8140     1.6840 C.3          1 ED71003   0.0000
    20 CAV        -68.6870   -19.4580     1.3820 C.3          1 ED71003   0.0000
    21 NBG        -68.5550   -18.6590     2.6230 N.pl3        1 ED71003   0.0000
    22 CBD        -69.6090   -18.0400     3.2070 C.ar         1 ED71003   0.0000
    23 CAR        -69.3890   -17.2140     4.3070 C.ar         1 ED71003   0.0000
    24 CAO        -70.4540   -16.5450     4.9210 C.ar         1 ED71003   0.0000
    25 CBB        -71.7390   -16.6760     4.4040 C.ar         1 ED71003   0.0000
    26 CAF        -72.8330   -16.0060     5.0230 C.1          1 ED71003   0.0000
    27 NAC        -73.7350   -15.4980     5.4930 N.1          1 ED71003   0.0000
    28 CAP        -71.9690   -17.4840     3.2980 C.ar         1 ED71003   0.0000
    29 CAS        -70.9070   -18.1650     2.6960 C.ar         1 ED71003   0.0000
    30 CAY        -67.2010   -18.3390     3.0720 C.3          1 ED71003   0.0000
    31 CBE        -66.7300   -19.1700     4.2720 C.2          1 ED71003   0.0000
    32 CAT        -67.4000   -20.0740     4.9940 C.2          1 ED71003   0.0000
    33 NAZ        -66.5620   -20.5310     5.9440 N.2          1 ED71003   0.0000
    34 CAU        -65.3920   -19.9050     5.8210 C.2          1 ED71003   0.0000
    35 NBI        -65.5120   -19.0690     4.7990 N.pl3        1 ED71003   0.0000
    36 CAB        -64.4440   -18.1420     4.2860 C.3          1 ED71003   0.0000
    37 HAA1       -70.9202   -23.3936     0.5613 H            1 ED71003   0.0000
    38 HAA2       -71.9884   -23.2142     1.7834 H            1 ED71003   0.0000
    39 HAA3       -72.4174   -24.0337     0.4377 H            1 ED71003   0.0000
    40 HAL        -74.3379   -22.1290     0.8727 H            1 ED71003   0.0000
    41 HAJ        -75.1196   -20.0943    -0.1003 H            1 ED71003   0.0000
    42 HAK        -73.6476   -18.7139    -1.3840 H            1 ED71003   0.0000
    43 HAQ        -71.3697   -19.3954    -1.6969 H            1 ED71003   0.0000
    44 HAX1       -67.2408   -21.1917    -0.1187 H            1 ED71003   0.0000
    45 HAX2       -67.5424   -22.7718    -0.3997 H            1 ED71003   0.0000
    46 HAM        -65.2482   -21.1447     1.1501 H            1 ED71003   0.0000
    47 HAH        -64.0718   -21.7269     3.1450 H            1 ED71003   0.0000
    48 HAG        -64.9991   -23.2966     4.6872 H            1 ED71003   0.0000
    49 HAI        -67.1211   -24.3052     4.2236 H            1 ED71003   0.0000
    50 HAN        -68.3027   -23.7317     2.2273 H            1 ED71003   0.0000
    51 HAW1       -68.9016   -21.1621     2.5331 H            1 ED71003   0.0000
    52 HAW2       -70.2858   -20.7007     1.7997 H            1 ED71003   0.0000
    53 HAV1       -69.2737   -18.9687     0.7367 H            1 ED71003   0.0000
    54 HAV2       -67.7820   -19.5884     0.9770 H            1 ED71003   0.0000
    55 HAR        -68.4611   -17.0979     4.6613 H            1 ED71003   0.0000
    56 HAO        -70.2922   -15.9758     5.7271 H            1 ED71003   0.0000
    57 HAP        -72.8948   -17.5786     2.9321 H            1 ED71003   0.0000
    58 HAS        -71.0746   -18.7434     1.8977 H            1 ED71003   0.0000
    59 HAY1       -67.1747   -17.3728     3.3286 H            1 ED71003   0.0000
    60 HAY2       -66.5714   -18.4992     2.3118 H            1 ED71003   0.0000
    61 HAT        -68.3485   -20.3584     4.8544 H            1 ED71003   0.0000
    62 HAU        -64.5805   -20.0397     6.3896 H            1 ED71003   0.0000
    63 HAB1       -63.6188   -18.2443     4.8416 H            1 ED71003   0.0000
    64 HAB2       -64.2353   -18.3680     3.3345 H            1 ED71003   0.0000
    65 HAB3       -64.7679   -17.1975     4.3409 H            1 ED71003   0.0000
@<TRIPOS>BOND
     1    1    2       1
     2    2    3      ar
     3    2    7      ar
     4    3    4      ar
     5    4    5      ar
     6    5    6      ar
     7    6    7      ar
     8    7    8       1
     9    8    9       2
    10    8   10       2
    11    8   11       1
    12   11   12       1
    13   11   19       1
    14   12   13       1
    15   13   14      ar
    16   13   18      ar
    17   14   15      ar
    18   15   16      ar
    19   16   17      ar
    20   17   18      ar
    21   19   20       1
    22   20   21       1
    23   21   22       1
    24   21   30       1
    25   22   23      ar
    26   22   29      ar
    27   23   24      ar
    28   24   25      ar
    29   25   26       1
    30   25   28      ar
    31   26   27       3
    32   28   29      ar
    33   30   31       1
    34   31   32       2
    35   31   35       1
    36   32   33       1
    37   33   34       2
    38   34   35       1
    39   35   36       1
    40    1   37       1
    41    1   38       1
    42    1   39       1
    43    3   40       1
    44    4   41       1
    45    5   42       1
    46    6   43       1
    47   12   44       1
    48   12   45       1
    49   14   46       1
    50   15   47       1
    51   16   48       1
    52   17   49       1
    53   18   50       1
    54   19   51       1
    55   19   52       1
    56   20   53       1
    57   20   54       1
    58   23   55       1
    59   24   56       1
    60   28   57       1
    61   29   58       1
    62   30   59       1
    63   30   60       1
    64   32   61       1
    65   34   62       1
    66   36   63       1
    67   36   64       1
    68   36   65       1
@<TRIPOS>SUBSTRUCTURE
     1 ED71003     1 GROUP             4 B     ED7     0 **** ED7 B1003
