@<TRIPOS>MOLECULE
4cj6_RET_1_ligand
   51    51     1     0     0
SMALL
NO_CHARGES


@<TRIPOS>ATOM
     1 C1           4.9370     7.7030    11.7960 C.3          1 RET1307   0.0000
     2 C2           5.3880     9.0900    11.3130 C.3          1 RET1307   0.0000
     3 C3           6.5860     9.5960    12.0910 C.3          1 RET1307   0.0000
     4 C4           7.7430     8.6440    11.8720 C.3          1 RET1307   0.0000
     5 C5           7.3790     7.2030    12.0210 C.2          1 RET1307   0.0000
     6 C6           6.1090     6.7500    11.9410 C.2          1 RET1307   0.0000
     7 C7           5.8420     5.3020    12.0080 C.2          1 RET1307   0.0000
     8 C8           4.7950     4.5700    12.4330 C.2          1 RET1307   0.0000
     9 C9           4.7620     3.0980    12.3390 C.2          1 RET1307   0.0000
    10 C10          3.7710     2.3410    12.8510 C.2          1 RET1307   0.0000
    11 C11          2.5340     2.8560    13.3980 C.3          1 RET1307   0.0000
    12 C12          1.7420     2.1580    14.2160 C.3          1 RET1307   0.0000
    13 C13          0.9080     1.0200    13.8300 C.2          1 RET1307   0.0000
    14 C14         -0.3480     0.9840    14.2710 C.2          1 RET1307   0.0000
    15 C15         -1.2400    -0.1610    14.0080 C.2          1 RET1307   0.0000
    16 O1          -2.4270    -0.1300    14.2620 O.2          1 RET1307   0.0000
    17 C16          4.2150     7.8560    13.1470 C.3          1 RET1307   0.0000
    18 C17          3.9040     7.2190    10.7730 C.3          1 RET1307   0.0000
    19 C18          8.5660     6.3070    11.9430 C.3          1 RET1307   0.0000
    20 C19          6.0100     2.3700    11.9770 C.3          1 RET1307   0.0000
    21 C20          1.5770    -0.2200    13.3640 C.3          1 RET1307   0.0000
    22 H1           4.6319     9.7343    11.4281 H            1 RET1307   0.0000
    23 H2           5.6320     9.0319    10.3450 H            1 RET1307   0.0000
    24 H3           6.3626     9.6359    13.0649 H            1 RET1307   0.0000
    25 H4           6.8356    10.5091    11.7686 H            1 RET1307   0.0000
    26 H5           8.4574     8.8586    12.5380 H            1 RET1307   0.0000
    27 H6           8.0961     8.7854    10.9472 H            1 RET1307   0.0000
    28 H7           6.5988     4.7454    11.6652 H            1 RET1307   0.0000
    29 H8           4.0078     5.0432    12.8284 H            1 RET1307   0.0000
    30 H9           3.9003     1.3494    12.8530 H            1 RET1307   0.0000
    31 H10          1.9674     3.0988    12.6106 H            1 RET1307   0.0000
    32 H11          2.7813     3.6853    13.8991 H            1 RET1307   0.0000
    33 H12          1.1100     2.8277    14.6059 H            1 RET1307   0.0000
    34 H13          2.3451     1.8112    14.9343 H            1 RET1307   0.0000
    35 H14         -0.6980     1.7586    14.7978 H            1 RET1307   0.0000
    36 H15         -0.8538    -0.9915    13.6066 H            1 RET1307   0.0000
    37 H16          3.9175     6.9574    13.4696 H            1 RET1307   0.0000
    38 H17          4.8399     8.2599    13.8151 H            1 RET1307   0.0000
    39 H18          3.4186     8.4501    13.0339 H            1 RET1307   0.0000
    40 H19          3.5721     6.3135    11.0373 H            1 RET1307   0.0000
    41 H20          3.1370     7.8601    10.7449 H            1 RET1307   0.0000
    42 H21          4.3287     7.1676     9.8691 H            1 RET1307   0.0000
    43 H22          8.2736     5.3565    12.0476 H            1 RET1307   0.0000
    44 H23          9.0131     6.4225    11.0560 H            1 RET1307   0.0000
    45 H24          9.2084     6.5404    12.6730 H            1 RET1307   0.0000
    46 H25          5.8278     1.3870    11.9542 H            1 RET1307   0.0000
    47 H26          6.3228     2.6720    11.0765 H            1 RET1307   0.0000
    48 H27          6.7173     2.5622    12.6573 H            1 RET1307   0.0000
    49 H28          0.8861    -0.9062    13.1366 H            1 RET1307   0.0000
    50 H29          2.1258    -0.0180    12.5528 H            1 RET1307   0.0000
    51 H30          2.1700    -0.5713    14.0886 H            1 RET1307   0.0000
@<TRIPOS>BOND
     1    1    2       1
     2    1    6       1
     3    1   17       1
     4    1   18       1
     5    2    3       1
     6    3    4       1
     7    4    5       1
     8    5    6       2
     9    5   19       1
    10    6    7       1
    11    7    8       2
    12    8    9       1
    13    9   10       2
    14    9   20       1
    15   10   11       1
    16   11   12       1
    17   12   13       1
    18   13   14       2
    19   13   21       1
    20   14   15       1
    21   15   16       2
    22    2   22       1
    23    2   23       1
    24    3   24       1
    25    3   25       1
    26    4   26       1
    27    4   27       1
    28    7   28       1
    29    8   29       1
    30   10   30       1
    31   11   31       1
    32   11   32       1
    33   12   33       1
    34   12   34       1
    35   14   35       1
    36   15   36       1
    37   17   37       1
    38   17   38       1
    39   17   39       1
    40   18   40       1
    41   18   41       1
    42   18   42       1
    43   19   43       1
    44   19   44       1
    45   19   45       1
    46   20   46       1
    47   20   47       1
    48   20   48       1
    49   21   49       1
    50   21   50       1
    51   21   51       1
@<TRIPOS>SUBSTRUCTURE
     1 RET1307     1 GROUP             4 A     RET     0 **** RET A1307
