@<TRIPOS>MOLECULE
4k6f_NAP_3_ligand
   73    77     1     0     0
SMALL
NO_CHARGES


@<TRIPOS>ATOM
     1 PA         -11.6680   -30.8720    48.5690 P.3          1 NAP300   0.0000
     2 O1A        -10.8800   -32.1530    48.4400 O.co2        1 NAP300   0.0000
     3 O2A        -12.8390   -30.7780    49.5080 O.co2        1 NAP300  -1.0000
     4 O5B        -10.5760   -29.7260    48.8060 O.3          1 NAP300   0.0000
     5 C5B        -10.8450   -28.5410    49.5310 C.3          1 NAP300   0.0000
     6 C4B         -9.5600   -28.1690    50.2440 C.3          1 NAP300   0.0000
     7 O4B         -9.8130   -26.9940    51.0280 O.3          1 NAP300   0.0000
     8 C3B         -9.0920   -29.2480    51.2210 C.3          1 NAP300   0.0000
     9 O3B         -7.8480   -29.7840    50.7510 O.3          1 NAP300   0.0000
    10 C2B         -9.0500   -28.5550    52.5870 C.3          1 NAP300   0.0000
    11 O2B         -7.9300   -28.8360    53.4160 O.3          1 NAP300   0.0000
    12 C1B         -9.0530   -27.0890    52.2260 C.3          1 NAP300   0.0000
    13 N9A         -9.6940   -26.2540    53.2400 N.pl3        1 NAP300   0.0000
    14 C8A        -11.0160   -26.0740    53.4100 C.2          1 NAP300   0.0000
    15 N7A        -11.2390   -25.2360    54.4430 N.2          1 NAP300   0.0000
    16 C5A        -10.0420   -24.8720    54.9420 C.ar         1 NAP300   0.0000
    17 C6A         -9.5620   -24.0070    56.0460 C.ar         1 NAP300   0.0000
    18 N6A        -10.4650   -23.3470    56.8070 N.pl3        1 NAP300   0.0000
    19 N1A         -8.2200   -23.8680    56.2280 N.ar         1 NAP300   0.0000
    20 C2A         -7.3550   -24.5480    55.4540 C.ar         1 NAP300   0.0000
    21 N3A         -7.7300   -25.3470    54.4310 N.ar         1 NAP300   0.0000
    22 C4A         -9.0290   -25.5560    54.1410 C.ar         1 NAP300   0.0000
    23 O3         -12.2880   -30.5190    47.1290 O.3          1 NAP300   0.0000
    24 PN         -11.5070   -29.9840    45.8090 P.3          1 NAP300   0.0000
    25 O1N        -12.4440   -30.1950    44.6550 O.co2        1 NAP300   0.0000
    26 O2N        -10.1200   -30.5970    45.7110 O.co2        1 NAP300  -1.0000
    27 O5D        -11.3450   -28.4090    46.1140 O.3          1 NAP300   0.0000
    28 C5D        -10.1750   -27.6410    45.8300 C.3          1 NAP300   0.0000
    29 C4D        -10.5510   -26.3390    45.1240 C.3          1 NAP300   0.0000
    30 O4D        -11.0180   -26.6570    43.8150 O.3          1 NAP300   0.0000
    31 C3D        -11.6900   -25.5610    45.7910 C.3          1 NAP300   0.0000
    32 O3D        -11.3670   -24.1530    45.8610 O.3          1 NAP300   0.0000
    33 C2D        -12.8840   -25.7960    44.8890 C.3          1 NAP300   0.0000
    34 O2D        -13.8300   -24.7280    44.9160 O.3          1 NAP300   0.0000
    35 C1D        -12.2100   -25.9160    43.5360 C.3          1 NAP300   0.0000
    36 N1N        -12.9830   -26.5460    42.4430 N.ar         1 NAP300   1.0000
    37 C2N        -13.2330   -27.8780    42.4190 C.ar         1 NAP300   0.0000
    38 C3N        -13.9540   -28.4780    41.3760 C.ar         1 NAP300   0.0000
    39 C7N        -14.2320   -29.9700    41.3210 C.2          1 NAP300   0.0000
    40 O7N        -15.0280   -30.3940    40.4740 O.2          1 NAP300   0.0000
    41 N7N        -13.6170   -30.8230    42.1630 N.am         1 NAP300   0.0000
    42 C4N        -14.4050   -27.6650    40.3230 C.ar         1 NAP300   0.0000
    43 C5N        -14.1170   -26.2930    40.3670 C.ar         1 NAP300   0.0000
    44 C6N        -13.4030   -25.7550    41.4360 C.ar         1 NAP300   0.0000
    45 P2B         -7.7640   -30.2520    54.1830 P.3          1 NAP300   0.0000
    46 O1X         -8.8920   -30.3170    55.1500 O.co2        1 NAP300   0.0000
    47 O2X         -6.4100   -30.1330    54.8230 O.co2        1 NAP300  -1.0000
    48 O3X         -7.8690   -31.3180    53.1090 O.co2        1 NAP300  -1.0000
    49 H5B1       -11.5746   -28.7013    50.1958 H            1 NAP300   0.0000
    50 H5B2       -11.1177   -27.8089    48.9068 H            1 NAP300   0.0000
    51 H4B         -8.8414   -27.9823    49.5741 H            1 NAP300   0.0000
    52 H3B         -9.7726   -29.9802    51.2481 H            1 NAP300   0.0000
    53 H5          -7.5304   -30.4918    51.3820 H            1 NAP300   0.0000
    54 H2B         -9.8886   -28.7695    53.0877 H            1 NAP300   0.0000
    55 H1B         -8.1177   -26.7742    52.0642 H            1 NAP300   0.0000
    56 H8A        -11.7289   -26.4991    52.8523 H            1 NAP300   0.0000
    57 H6A1       -10.1548   -22.7602    57.5550 H            1 NAP300   0.0000
    58 H6A2       -11.4427   -23.4459    56.6216 H            1 NAP300   0.0000
    59 H2A         -6.3780   -24.4569    55.6469 H            1 NAP300   0.0000
    60 H5D1        -9.5673   -28.1723    45.2397 H            1 NAP300   0.0000
    61 H5D2        -9.7050   -27.4276    46.6865 H            1 NAP300   0.0000
    62 H4D         -9.7437   -25.7529    45.0556 H            1 NAP300   0.0000
    63 H3D        -11.8689   -25.9226    46.7060 H            1 NAP300   0.0000
    64 H16        -10.5314   -24.0289    46.3961 H            1 NAP300   0.0000
    65 H2D        -13.3313   -26.6578    45.1281 H            1 NAP300   0.0000
    66 H18        -14.5911   -24.9413    44.3035 H            1 NAP300   0.0000
    67 H1D        -11.9434   -24.9990    43.2394 H            1 NAP300   0.0000
    68 H2N        -12.8937   -28.4494    43.1663 H            1 NAP300   0.0000
    69 H7N1       -13.8119   -31.8026    42.1130 H            1 NAP300   0.0000
    70 H7N2       -12.9656   -30.4766    42.8381 H            1 NAP300   0.0000
    71 H4N        -14.9196   -28.0554    39.5596 H            1 NAP300   0.0000
    72 H5N        -14.4262   -25.6967    39.6261 H            1 NAP300   0.0000
    73 H6N        -13.2010   -24.7758    41.4560 H            1 NAP300   0.0000
@<TRIPOS>BOND
     1    1    2      ar
     2    1    3      ar
     3    1    4       1
     4    1   23       1
     5    4    5       1
     6    5    6       1
     7    6    7       1
     8    6    8       1
     9    7   12       1
    10    8    9       1
    11    8   10       1
    12   10   11       1
    13   10   12       1
    14   11   45       1
    15   12   13       1
    16   13   14       1
    17   13   22       1
    18   14   15       2
    19   15   16       1
    20   16   17      ar
    21   16   22      ar
    22   17   18       1
    23   17   19      ar
    24   19   20      ar
    25   20   21      ar
    26   21   22      ar
    27   23   24       1
    28   24   25      ar
    29   24   26      ar
    30   24   27       1
    31   27   28       1
    32   28   29       1
    33   29   30       1
    34   29   31       1
    35   30   35       1
    36   31   32       1
    37   31   33       1
    38   33   34       1
    39   33   35       1
    40   35   36       1
    41   36   37      ar
    42   36   44      ar
    43   37   38      ar
    44   38   39       1
    45   38   42      ar
    46   39   40       2
    47   39   41      am
    48   42   43      ar
    49   43   44      ar
    50   45   46      ar
    51   45   47      ar
    52   45   48      ar
    53   43   72       1
    54    5   49       1
    55    5   50       1
    56    6   51       1
    57    8   52       1
    58    9   53       1
    59   10   54       1
    60   12   55       1
    61   14   56       1
    62   18   57       1
    63   18   58       1
    64   20   59       1
    65   44   73       1
    66   28   60       1
    67   28   61       1
    68   29   62       1
    69   31   63       1
    70   32   64       1
    71   33   65       1
    72   34   66       1
    73   35   67       1
    74   37   68       1
    75   41   69       1
    76   41   70       1
    77   42   71       1
@<TRIPOS>SUBSTRUCTURE
     1 NAP300      1 GROUP             4 D     NAP     0 **** NAP D 300
