@<TRIPOS>MOLECULE
3w6u_NAP_1_ligand
   73    77     1     0     0
SMALL
NO_CHARGES


@<TRIPOS>ATOM
     1 PA          25.7180    23.3290    39.6630 P.3          1 NAP301   0.0000
     2 O1A         25.3660    21.9270    39.9980 O.co2        1 NAP301   0.0000
     3 O2A         25.1890    24.4460    40.4890 O.co2        1 NAP301  -1.0000
     4 O5B         25.2720    23.5850    38.1590 O.3          1 NAP301   0.0000
     5 C5B         25.5290    22.6000    37.1680 C.3          1 NAP301   0.0000
     6 C4B         25.1050    23.2420    35.8430 C.3          1 NAP301   0.0000
     7 O4B         25.3810    22.3690    34.7650 O.3          1 NAP301   0.0000
     8 C3B         23.6040    23.4540    35.7880 C.3          1 NAP301   0.0000
     9 O3B         23.3710    24.6470    35.0190 O.3          1 NAP301   0.0000
    10 C2B         23.1050    22.2440    35.0320 C.3          1 NAP301   0.0000
    11 O2B         21.8480    22.4910    34.4030 O.3          1 NAP301   0.0000
    12 C1B         24.2030    22.1510    34.0030 C.3          1 NAP301   0.0000
    13 N9A         24.3120    20.8040    33.3940 N.pl3        1 NAP301   0.0000
    14 C8A         24.7330    19.6840    33.9990 C.2          1 NAP301   0.0000
    15 N7A         24.7270    18.6430    33.1310 N.2          1 NAP301   0.0000
    16 C5A         24.3070    19.1290    31.9490 C.ar         1 NAP301   0.0000
    17 C6A         24.0570    18.5540    30.6330 C.ar         1 NAP301   0.0000
    18 N6A         24.3140    17.2260    30.4260 N.pl3        1 NAP301   0.0000
    19 N1A         23.6080    19.3860    29.6700 N.ar         1 NAP301   0.0000
    20 C2A         23.3880    20.7150    29.8690 C.ar         1 NAP301   0.0000
    21 N3A         23.5640    21.3030    31.0780 N.ar         1 NAP301   0.0000
    22 C4A         24.0300    20.5630    32.1160 C.ar         1 NAP301   0.0000
    23 O3          27.3040    23.4180    39.5590 O.3          1 NAP301   0.0000
    24 PN          28.2110    24.7210    39.7120 P.3          1 NAP301   0.0000
    25 O1N         28.6020    24.8450    41.1520 O.co2        1 NAP301   0.0000
    26 O2N         27.7260    25.9010    38.9470 O.co2        1 NAP301  -1.0000
    27 O5D         29.5830    24.2000    39.0530 O.3          1 NAP301   0.0000
    28 C5D         29.7410    24.0060    37.6490 C.3          1 NAP301   0.0000
    29 C4D         31.2040    23.6760    37.3160 C.3          1 NAP301   0.0000
    30 O4D         32.1820    24.5780    37.9090 O.3          1 NAP301   0.0000
    31 C3D         31.5830    22.2940    37.8040 C.3          1 NAP301   0.0000
    32 O3D         32.4880    21.7840    36.8190 O.3          1 NAP301   0.0000
    33 C2D         32.3010    22.5940    39.1030 C.3          1 NAP301   0.0000
    34 O2D         33.1230    21.4860    39.4860 O.3          1 NAP301   0.0000
    35 C1D         33.0670    23.8880    38.7790 C.3          1 NAP301   0.0000
    36 N1N         33.3180    24.7910    39.8970 N.ar         1 NAP301   1.0000
    37 C2N         32.4800    24.9120    40.9540 C.ar         1 NAP301   0.0000
    38 C3N         32.7790    25.8150    41.9950 C.ar         1 NAP301   0.0000
    39 C7N         31.8800    26.0010    43.2210 C.2          1 NAP301   0.0000
    40 O7N         32.3800    26.2200    44.3110 O.2          1 NAP301   0.0000
    41 N7N         30.5550    25.9550    43.1750 N.am         1 NAP301   0.0000
    42 C4N         33.9710    26.5460    41.9230 C.ar         1 NAP301   0.0000
    43 C5N         34.8060    26.4170    40.8140 C.ar         1 NAP301   0.0000
    44 C6N         34.4430    25.5250    39.8230 C.ar         1 NAP301   0.0000
    45 P2B         20.5000    22.3820    35.2600 P.3          1 NAP301   0.0000
    46 O1X         19.5060    21.9350    34.2140 O.co2        1 NAP301   0.0000
    47 O2X         20.7270    21.4090    36.3680 O.co2        1 NAP301  -1.0000
    48 O3X         20.3720    23.8090    35.7180 O.co2        1 NAP301  -1.0000
    49 H5B1        24.9919    21.7754    37.3457 H            1 NAP301   0.0000
    50 H5B2        26.5013    22.3669    37.1493 H            1 NAP301   0.0000
    51 H4B         25.5812    24.1117    35.7132 H            1 NAP301   0.0000
    52 H3B         23.2022    23.5148    36.7017 H            1 NAP301   0.0000
    53 H5          22.3877    24.8194    34.9610 H            1 NAP301   0.0000
    54 H2B         23.0739    21.4314    35.6140 H            1 NAP301   0.0000
    55 H1B         24.0958    22.8542    33.3002 H            1 NAP301   0.0000
    56 H8A         25.0125    19.6249    34.9573 H            1 NAP301   0.0000
    57 H6A1        24.1471    16.8184    29.5282 H            1 NAP301   0.0000
    58 H6A2        24.6687    16.6631    31.1725 H            1 NAP301   0.0000
    59 H2A         23.0866    21.2759    29.0979 H            1 NAP301   0.0000
    60 H5D1        29.4740    24.8415    37.1687 H            1 NAP301   0.0000
    61 H5D2        29.1570    23.2502    37.3529 H            1 NAP301   0.0000
    62 H4D         31.3143    23.7006    36.3224 H            1 NAP301   0.0000
    63 H3D         30.7871    21.7029    37.9346 H            1 NAP301   0.0000
    64 H16         32.4077    20.7881    36.7764 H            1 NAP301   0.0000
    65 H2D         31.6293    22.7750    39.8213 H            1 NAP301   0.0000
    66 H18         34.0767    21.7818    39.5410 H            1 NAP301   0.0000
    67 H1D         33.9222    23.6755    38.3063 H            1 NAP301   0.0000
    68 H2N         31.6474    24.3598    40.9963 H            1 NAP301   0.0000
    69 H7N1        30.0209    26.0840    44.0105 H            1 NAP301   0.0000
    70 H7N2        30.0903    25.7913    42.3048 H            1 NAP301   0.0000
    71 H4N         34.2241    27.1621    42.6689 H            1 NAP301   0.0000
    72 H5N         35.6451    26.9556    40.7377 H            1 NAP301   0.0000
    73 H6N         35.0361    25.4217    39.0245 H            1 NAP301   0.0000
@<TRIPOS>BOND
     1    1    2      ar
     2    1    3      ar
     3    1    4       1
     4    1   23       1
     5    4    5       1
     6    5    6       1
     7    6    7       1
     8    6    8       1
     9    7   12       1
    10    8    9       1
    11    8   10       1
    12   10   11       1
    13   10   12       1
    14   11   45       1
    15   12   13       1
    16   13   14       1
    17   13   22       1
    18   14   15       2
    19   15   16       1
    20   16   17      ar
    21   16   22      ar
    22   17   18       1
    23   17   19      ar
    24   19   20      ar
    25   20   21      ar
    26   21   22      ar
    27   23   24       1
    28   24   25      ar
    29   24   26      ar
    30   24   27       1
    31   27   28       1
    32   28   29       1
    33   29   30       1
    34   29   31       1
    35   30   35       1
    36   31   32       1
    37   31   33       1
    38   33   34       1
    39   33   35       1
    40   35   36       1
    41   36   37      ar
    42   36   44      ar
    43   37   38      ar
    44   38   39       1
    45   38   42      ar
    46   39   40       2
    47   39   41      am
    48   42   43      ar
    49   43   44      ar
    50   45   46      ar
    51   45   47      ar
    52   45   48      ar
    53   43   72       1
    54    5   49       1
    55    5   50       1
    56    6   51       1
    57    8   52       1
    58    9   53       1
    59   10   54       1
    60   12   55       1
    61   14   56       1
    62   18   57       1
    63   18   58       1
    64   20   59       1
    65   44   73       1
    66   28   60       1
    67   28   61       1
    68   29   62       1
    69   31   63       1
    70   32   64       1
    71   33   65       1
    72   34   66       1
    73   35   67       1
    74   37   68       1
    75   41   69       1
    76   41   70       1
    77   42   71       1
@<TRIPOS>SUBSTRUCTURE
     1 NAP301      1 GROUP             4 A     NAP     0 **** NAP A 301
