@<TRIPOS>MOLECULE
4ms1_381_1_ligand
   36    36     1     0     0
SMALL
NO_CHARGES


@<TRIPOS>ATOM
     1 O1         -45.4230    20.1420   -25.8450 O.co2        1 381501   0.0000
     2 P          -46.4990    21.1210   -26.0820 P.3          1 381501   0.0000
     3 C3         -47.9250    20.2300   -26.8040 C.3          1 381501   0.0000
     4 C2         -49.0250    21.1840   -27.2850 C.3          1 381501   0.0000
     5 C1         -50.0160    20.4650   -28.1980 C.3          1 381501   0.0000
     6 N          -51.0660    21.3780   -28.6420 N.4          1 381501   1.0000
     7 O2         -45.9640    22.2610   -27.0790 O.co2        1 381501  -1.0000
     8 C4         -46.9750    21.9370   -24.5190 C.3          1 381501   0.0000
     9 C5         -47.7610    21.0580   -23.5270 C.3          1 381501   0.0000
    10 C10        -46.9120    19.9740   -22.8420 C.3          1 381501   0.0000
    11 C9         -47.1040    19.8530   -21.3150 C.3          1 381501   0.0000
    12 C8         -48.5350    20.0700   -20.7950 C.3          1 381501   0.0000
    13 C7         -49.3030    21.2110   -21.4750 C.3          1 381501   0.0000
    14 C6         -48.4520    21.9720   -22.5040 C.3          1 381501   0.0000
    15 H1         -48.3086    19.6210   -26.1097 H            1 381501   0.0000
    16 H2         -47.6056    19.6891   -27.5821 H            1 381501   0.0000
    17 H3         -48.6052    21.9389   -27.7889 H            1 381501   0.0000
    18 H4         -49.5147    21.5446   -26.4911 H            1 381501   0.0000
    19 H5         -50.4316    19.7054   -27.6977 H            1 381501   0.0000
    20 H6         -49.5293    20.1114   -28.9968 H            1 381501   0.0000
    21 H7         -50.7847    21.8207   -29.4934 H            1 381501   0.0000
    22 H8         -51.9105    20.8651   -28.7963 H            1 381501   0.0000
    23 H9         -47.5415    22.7295   -24.7448 H            1 381501   0.0000
    24 H10        -46.1390    22.2437   -24.0640 H            1 381501   0.0000
    25 H11        -48.4790    20.5924   -24.0445 H            1 381501   0.0000
    26 H12        -45.9491    20.1792   -23.0170 H            1 381501   0.0000
    27 H13        -47.1452    19.0929   -23.2535 H            1 381501   0.0000
    28 H14        -46.5137    20.5316   -20.8779 H            1 381501   0.0000
    29 H15        -46.8155    18.9352   -21.0423 H            1 381501   0.0000
    30 H16        -48.4830    20.2703   -19.8166 H            1 381501   0.0000
    31 H17        -49.0482    19.2233   -20.9351 H            1 381501   0.0000
    32 H18        -49.6064    21.8549   -20.7726 H            1 381501   0.0000
    33 H19        -50.0997    20.8264   -21.9412 H            1 381501   0.0000
    34 H20        -49.0461    22.6070   -22.9979 H            1 381501   0.0000
    35 H21        -47.7485    22.4865   -22.0138 H            1 381501   0.0000
    36 H22        -51.2218    22.0733   -27.9404 H            1 381501   0.0000
@<TRIPOS>BOND
     1    1    2      ar
     2    2    3       1
     3    2    7      ar
     4    2    8       1
     5    3    4       1
     6    4    5       1
     7    5    6       1
     8    8    9       1
     9    9   10       1
    10    9   14       1
    11   10   11       1
    12   11   12       1
    13   12   13       1
    14   13   14       1
    15   14   35       1
    16    3   15       1
    17    3   16       1
    18    4   17       1
    19    4   18       1
    20    5   19       1
    21    5   20       1
    22    6   21       1
    23    6   22       1
    24    8   23       1
    25    8   24       1
    26    9   25       1
    27   10   26       1
    28   10   27       1
    29   11   28       1
    30   11   29       1
    31   12   30       1
    32   12   31       1
    33   13   32       1
    34   13   33       1
    35   14   34       1
    36    6   36       1
@<TRIPOS>SUBSTRUCTURE
     1 381501      1 GROUP             4 A     381     0 **** 381 A 501
