@<TRIPOS>MOLECULE
1kw9_BPY_1_ligand
   23    24     1     0     0
SMALL
NO_CHARGES


@<TRIPOS>ATOM
     1 CK1         81.4440    37.9530    16.4610 C.ar         1 BPY401   0.0000
     2 CK2         82.7830    38.4310    16.4160 C.ar         1 BPY401   0.0000
     3 CK3         83.0120    39.7980    16.1240 C.ar         1 BPY401   0.0000
     4 CK4         81.9480    40.6860    15.8890 C.ar         1 BPY401   0.0000
     5 CK5         80.6200    40.2100    15.9260 C.ar         1 BPY401   0.0000
     6 CK6         80.3640    38.8460    16.2290 C.ar         1 BPY401   0.0000
     7 CK7         83.8890    37.5830    16.6840 C.ar         1 BPY401   0.0000
     8 CK8         84.7040    37.7940    17.8350 C.ar         1 BPY401   0.0000
     9 CK9         85.8200    36.9410    18.0820 C.ar         1 BPY401   0.0000
    10 CKA         86.1320    35.8790    17.1930 C.ar         1 BPY401   0.0000
    11 CKB         85.3140    35.6590    16.0550 C.ar         1 BPY401   0.0000
    12 CKC         84.2010    36.5080    15.8120 C.ar         1 BPY401   0.0000
    13 OK1         82.2280    42.0060    15.6100 O.3          1 BPY401   0.0000
    14 OK2         84.2910    40.2800    16.0530 O.3          1 BPY401  -1.0000
    15 HK1         81.2631    36.9890    16.6558 H            1 BPY401   0.0000
    16 HK5         79.8599    40.8323    15.7391 H            1 BPY401   0.0000
    17 HK6         79.4221    38.5140    16.2790 H            1 BPY401   0.0000
    18 HK8         84.4933    38.5389    18.4680 H            1 BPY401   0.0000
    19 HK9         86.3890    37.0926    18.8903 H            1 BPY401   0.0000
    20 HKA         86.9218    35.2909    17.3675 H            1 BPY401   0.0000
    21 HKB         85.5200    34.9092    15.4262 H            1 BPY401   0.0000
    22 HKC         83.6260    36.3447    15.0103 H            1 BPY401   0.0000
    23 H9          81.4822    42.6503    15.4405 H            1 BPY401   0.0000
@<TRIPOS>BOND
     1    1    2      ar
     2    1    6      ar
     3    2    3      ar
     4    2    7       1
     5    3    4      ar
     6    3   14       1
     7    4    5      ar
     8    4   13       1
     9    5    6      ar
    10    7    8      ar
    11    7   12      ar
    12    8    9      ar
    13    9   10      ar
    14   10   11      ar
    15   11   12      ar
    16    1   15       1
    17    5   16       1
    18    6   17       1
    19    8   18       1
    20    9   19       1
    21   10   20       1
    22   11   21       1
    23   12   22       1
    24   13   23       1
@<TRIPOS>SUBSTRUCTURE
     1 BPY401      1 GROUP             4 B     BPY     0 **** BPY B 401
