@<TRIPOS>MOLECULE
1e0a_GNP_1_ligand
   45    47     1     0     0
SMALL
NO_CHARGES


@<TRIPOS>ATOM
     1 PG          -2.3690   -10.9150    -3.1550 P.3          1 GNP185   0.0000
     2 O1G         -2.4140   -11.2690    -1.7180 O.co2        1 GNP185   0.0000
     3 O2G         -3.4000    -9.9900    -3.6740 O.co2        1 GNP185  -1.0000
     4 O3G         -2.5510   -12.2940    -3.9650 O.co2        1 GNP185  -1.0000
     5 N3B         -0.8850   -10.2010    -3.4360 N.3          1 GNP185   0.0000
     6 PB          -0.2750    -8.9700    -2.4880 P.3          1 GNP185   0.0000
     7 O1B          0.4910    -8.0730    -3.3830 O.co2        1 GNP185   0.0000
     8 O2B         -1.4150    -8.3940    -1.7390 O.co2        1 GNP185  -1.0000
     9 O3A          0.7680    -9.5030    -1.3830 O.3          1 GNP185   0.0000
    10 PA           2.0430   -10.4710    -1.5560 P.3          1 GNP185   0.0000
    11 O1A          2.3010   -10.6430    -3.0030 O.co2        1 GNP185   0.0000
    12 O2A          1.8420   -11.6590    -0.6970 O.co2        1 GNP185  -1.0000
    13 O5'          3.2390    -9.5940    -0.9310 O.3          1 GNP185   0.0000
    14 C5'          4.4920   -10.2030    -0.6010 C.3          1 GNP185   0.0000
    15 C4'          4.4840   -10.7970     0.8070 C.3          1 GNP185   0.0000
    16 O4'          5.5440   -10.2280     1.6030 O.3          1 GNP185   0.0000
    17 C3'          3.1640   -10.5190     1.5080 C.3          1 GNP185   0.0000
    18 O3'          2.4990   -11.7410     1.8460 O.3          1 GNP185   0.0000
    19 C2'          3.4940    -9.7280     2.7470 C.3          1 GNP185   0.0000
    20 O2'          2.9840   -10.3770     3.9160 O.3          1 GNP185   0.0000
    21 C1'          5.0090    -9.6270     2.8000 C.3          1 GNP185   0.0000
    22 N9           5.4390    -8.2210     2.9180 N.pl3        1 GNP185   0.0000
    23 C8           5.5810    -7.2760     1.9550 C.2          1 GNP185   0.0000
    24 N7           5.9850    -6.1030     2.3160 N.2          1 GNP185   0.0000
    25 C5           6.1380    -6.2670     3.6960 C.2          1 GNP185   0.0000
    26 C6           6.5640    -5.3340     4.6970 C.2          1 GNP185   0.0000
    27 O6           6.8950    -4.1580     4.5460 O.2          1 GNP185   0.0000
    28 N1           6.5820    -5.9060     5.9790 N.2          1 GNP185   0.0000
    29 C2           6.2310    -7.2190     6.2710 C.2          1 GNP185   0.0000
    30 N2           6.3080    -7.5850     7.5500 N.pl3        1 GNP185   0.0000
    31 N3           5.8280    -8.1020     5.3320 N.pl3        1 GNP185   0.0000
    32 C4           5.8040    -7.5670     4.0750 C.2          1 GNP185   0.0000
    33 H3B         -0.2118   -10.9394    -3.3956 H            1 GNP185   0.0000
    34 H5'1         5.2120    -9.5112    -0.6559 H            1 GNP185   0.0000
    35 H5'2         4.6799   -10.9326    -1.2586 H            1 GNP185   0.0000
    36 H4'          4.6181   -11.7860     0.7445 H            1 GNP185   0.0000
    37 H3'          2.5767    -9.9735     0.9101 H            1 GNP185   0.0000
    38 H6           2.3171   -12.2631     1.0127 H            1 GNP185   0.0000
    39 H2'          3.0999    -8.8118     2.6740 H            1 GNP185   0.0000
    40 H8           2.3391    -9.7696     4.3799 H            1 GNP185   0.0000
    41 H1'          5.3406   -10.1356     3.5946 H            1 GNP185   0.0000
    42 H10          5.3796    -7.4806     0.9971 H            1 GNP185   0.0000
    43 H11          6.0676    -8.5178     7.8185 H            1 GNP185   0.0000
    44 H12          6.6062    -6.9269     8.2413 H            1 GNP185   0.0000
    45 H13          5.5740    -9.0476     5.5352 H            1 GNP185   0.0000
@<TRIPOS>BOND
     1    1    2      ar
     2    1    3      ar
     3    1    4      ar
     4    1    5       1
     5    5    6       1
     6    6    7      ar
     7    6    8      ar
     8    6    9       1
     9    9   10       1
    10   10   11      ar
    11   10   12      ar
    12   10   13       1
    13   13   14       1
    14   14   15       1
    15   15   16       1
    16   15   17       1
    17   16   21       1
    18   17   18       1
    19   17   19       1
    20   19   20       1
    21   19   21       1
    22   21   22       1
    23   22   23       1
    24   22   32       1
    25   23   24       2
    26   24   25       1
    27   25   26       1
    28   25   32       2
    29   26   27       2
    30   26   28       1
    31   28   29       2
    32   29   30       1
    33   29   31       1
    34   31   32       1
    35   30   44       1
    36   30   43       1
    37    5   33       1
    38   21   41       1
    39   23   42       1
    40   14   34       1
    41   14   35       1
    42   15   36       1
    43   17   37       1
    44   18   38       1
    45   19   39       1
    46   20   40       1
    47   31   45       1
@<TRIPOS>SUBSTRUCTURE
     1 GNP185      1 GROUP             4 A     GNP     0 **** GNP A 185
