@<TRIPOS>MOLECULE
1rl4_BRR_3_ligand
   26    25     1     0     0
SMALL
NO_CHARGES


@<TRIPOS>ATOM
     1 C10         30.8420    20.7450   -16.8310 C.3          1 BRR1401   0.0000
     2 C9          30.1450    20.5630   -18.1780 C.3          1 BRR1401   0.0000
     3 C8          30.9800    19.7090   -19.1450 C.3          1 BRR1401   0.0000
     4 C7          30.7120    20.1610   -20.5840 C.3          1 BRR1401   0.0000
     5 C6          31.8790    19.8290   -21.5240 C.3          1 BRR1401   0.0000
     6 C11         32.0080    18.3060   -21.6840 C.2          1 BRR1401   0.0000
     7 O12         31.0790    17.6480   -22.1550 O.co2        1 BRR1401   0.0000
     8 O13         33.0430    17.7220   -21.3580 O.co2        1 BRR1401  -1.0000
     9 C5          31.6010    20.4680   -22.8980 C.3          1 BRR1401   0.0000
    10 N3          31.5820    21.9070   -22.7390 N.am         1 BRR1401   0.0000
    11 C2          30.4460    22.5650   -22.6080 C.2          1 BRR1401   0.0000
    12 O1          30.4610    23.7850   -22.4420 O.2          1 BRR1401   0.0000
    13 O4          32.6920    22.7400   -22.6240 O.3          1 BRR1401  -1.0000
    14 H1          30.2689    21.3043   -16.2320 H            1 BRR1401   0.0000
    15 H2          30.9914    19.8506   -16.4095 H            1 BRR1401   0.0000
    16 H3          31.7220    21.1993   -16.9697 H            1 BRR1401   0.0000
    17 H4          29.9948    21.4625   -18.5884 H            1 BRR1401   0.0000
    18 H5          29.2643    20.1138   -18.0281 H            1 BRR1401   0.0000
    19 H6          30.7262    18.7469   -19.0447 H            1 BRR1401   0.0000
    20 H7          31.9514    19.8211   -18.9355 H            1 BRR1401   0.0000
    21 H8          30.5663    21.1503   -20.5888 H            1 BRR1401   0.0000
    22 H9          29.8891    19.7013   -20.9178 H            1 BRR1401   0.0000
    23 H10         32.7282    20.1995   -21.1478 H            1 BRR1401   0.0000
    24 H11         30.7162    20.1549   -23.2430 H            1 BRR1401   0.0000
    25 H12         32.3206    20.2091   -23.5424 H            1 BRR1401   0.0000
    26 H13         29.5753    22.0744   -22.6434 H            1 BRR1401   0.0000
@<TRIPOS>BOND
     1    1    2       1
     2    2    3       1
     3    3    4       1
     4    4    5       1
     5    5    6       1
     6    5    9       1
     7    6    7      ar
     8    6    8      ar
     9    9   10       1
    10   10   11      am
    11   10   13       1
    12   11   12       2
    13    1   14       1
    14    1   15       1
    15    1   16       1
    16    2   17       1
    17    2   18       1
    18    3   19       1
    19    3   20       1
    20    4   21       1
    21    4   22       1
    22    5   23       1
    23   11   26       1
    24    9   24       1
    25    9   25       1
@<TRIPOS>SUBSTRUCTURE
     1 BRR1401     1 GROUP             4 B     BRR     0 **** BRR B1401
