@<TRIPOS>MOLECULE
3zrr_PXG_1_ligand
   40    41     1     0     0
SMALL
NO_CHARGES


@<TRIPOS>ATOM
     1 N1         -23.5430   -23.3370   -19.3620 N.ar         1 PXG470   1.0000
     2 C2         -24.0500   -23.1410   -18.1260 C.ar         1 PXG470   0.0000
     3 C2A        -25.2420   -23.9560   -17.6620 C.3          1 PXG470   0.0000
     4 C3         -23.4540   -22.1980   -17.2770 C.ar         1 PXG470   0.0000
     5 O3         -23.9720   -22.0350   -16.0350 O.3          1 PXG470   0.0000
     6 C5         -21.8570   -21.6720   -18.9800 C.ar         1 PXG470   0.0000
     7 C6         -22.4670   -22.6390   -19.8080 C.ar         1 PXG470   0.0000
     8 C5A        -20.6510   -20.8780   -19.5020 C.3          1 PXG470   0.0000
     9 OP4        -19.5120   -21.2450   -18.7200 O.3          1 PXG470   0.0000
    10 P          -18.2010   -20.3520   -18.7400 P.3          1 PXG470   0.0000
    11 OP1        -17.2570   -21.1510   -17.8830 O.co2        1 PXG470   0.0000
    12 OP2        -18.6380   -18.9970   -18.1990 O.co2        1 PXG470  -1.0000
    13 OP3        -17.8840   -20.3040   -20.2210 O.co2        1 PXG470  -1.0000
    14 C4         -22.3510   -21.4620   -17.6970 C.ar         1 PXG470   0.0000
    15 C4A        -21.6640   -20.4380   -16.8060 C.3          1 PXG470   0.0000
    16 C7         -24.5180   -16.1430   -13.4850 C.2          1 PXG470   0.0000
    17 C8         -23.3620   -16.8080   -14.1720 C.ar         1 PXG470   0.0000
    18 O2         -24.9310   -15.0380   -13.9230 O.co2        1 PXG470   0.0000
    19 C9         -23.4420   -18.1470   -14.5810 C.ar         1 PXG470   0.0000
    20 C10        -22.3590   -18.7490   -15.2240 C.ar         1 PXG470   0.0000
    21 C11        -21.2050   -17.9900   -15.4310 C.ar         1 PXG470   0.0000
    22 C12        -21.1190   -16.6550   -15.0160 C.ar         1 PXG470   0.0000
    23 C13        -22.2050   -16.0680   -14.3840 C.ar         1 PXG470   0.0000
    24 O8         -25.0140   -16.7150   -12.4820 O.co2        1 PXG470  -1.0000
    25 N9         -22.4160   -20.0420   -15.6340 N.pl3        1 PXG470   0.0000
    26 H2A1       -25.4874   -23.6871   -16.7306 H            1 PXG470   0.0000
    27 H2A2       -26.0169   -23.7902   -18.2719 H            1 PXG470   0.0000
    28 H2A3       -25.0076   -24.9280   -17.6775 H            1 PXG470   0.0000
    29 H4         -24.7589   -22.5802   -15.7459 H            1 PXG470   0.0000
    30 H5         -22.1060   -22.8103   -20.7247 H            1 PXG470   0.0000
    31 H5A1       -20.8244   -19.8974   -19.4105 H            1 PXG470   0.0000
    32 H5A2       -20.4887   -21.0995   -20.4636 H            1 PXG470   0.0000
    33 H4A1       -21.4886   -19.6194   -17.3529 H            1 PXG470   0.0000
    34 H4A2       -20.7951   -20.8269   -16.4999 H            1 PXG470   0.0000
    35 H10        -24.2764   -18.6715   -14.4117 H            1 PXG470   0.0000
    36 H11        -20.4204   -18.4102   -15.8869 H            1 PXG470   0.0000
    37 H12        -20.2826   -16.1302   -15.1739 H            1 PXG470   0.0000
    38 H13        -22.1557   -15.1160   -14.0820 H            1 PXG470   0.0000
    39 H14        -22.9682   -20.7097   -15.1348 H            1 PXG470   0.0000
    40 H15        -23.9701   -24.0123   -19.9633 H            1 PXG470   0.0000
@<TRIPOS>BOND
     1    1    2      ar
     2    1    7      ar
     3    2    3       1
     4    2    4      ar
     5    4    5       1
     6    4   14      ar
     7    6    7      ar
     8    6    8       1
     9    6   14      ar
    10    8    9       1
    11    9   10       1
    12   10   11      ar
    13   10   12      ar
    14   10   13      ar
    15   14   15       1
    16   15   25       1
    17   16   17       1
    18   16   18      ar
    19   16   24      ar
    20   17   19      ar
    21   17   23      ar
    22   19   20      ar
    23   20   21      ar
    24   20   25       1
    25   21   22      ar
    26   22   23      ar
    27    3   26       1
    28    3   27       1
    29    3   28       1
    30    5   29       1
    31    7   30       1
    32    8   31       1
    33    8   32       1
    34   25   39       1
    35   23   38       1
    36   15   33       1
    37   15   34       1
    38   22   37       1
    39   19   35       1
    40   21   36       1
    41    1   40       1
@<TRIPOS>SUBSTRUCTURE
     1 PXG470      1 GROUP             4 A     PXG     0 **** PXG A 470
