@<TRIPOS>MOLECULE
2a14_SAH_1_ligand
   46    48     1     0     0
SMALL
NO_CHARGES


@<TRIPOS>ATOM
     1 N           18.6650    40.4080     7.5850 N.4          1 SAH4001   1.0000
     2 CA          19.8600    39.6850     8.1230 C.3          1 SAH4001   0.0000
     3 CB          21.0470    40.6200     8.4200 C.3          1 SAH4001   0.0000
     4 CG          20.8660    41.6720     9.5290 C.3          1 SAH4001   0.0000
     5 SD          22.4720    42.3730    10.0020 S.3          1 SAH4001   0.0000
     6 C           19.4580    38.7810     9.3020 C.2          1 SAH4001   0.0000
     7 O           18.2580    38.5000     9.4550 O.co2        1 SAH4001   0.0000
     8 OXT         20.3010    38.3090    10.0770 O.co2        1 SAH4001  -1.0000
     9 C5'         22.2510    44.1150     9.5370 C.3          1 SAH4001   0.0000
    10 C4'         22.3030    44.3790     8.0350 C.3          1 SAH4001   0.0000
    11 O4'         22.0280    45.7600     7.8240 O.3          1 SAH4001   0.0000
    12 C3'         23.6620    44.1040     7.3730 C.3          1 SAH4001   0.0000
    13 O3'         23.4900    43.1180     6.3710 O.3          1 SAH4001   0.0000
    14 C2'         24.0720    45.4500     6.7810 C.3          1 SAH4001   0.0000
    15 O2'         24.7760    45.3980     5.5510 O.3          1 SAH4001   0.0000
    16 C1'         22.6970    46.0970     6.6240 C.3          1 SAH4001   0.0000
    17 N9          22.7210    47.5470     6.4220 N.pl3        1 SAH4001   0.0000
    18 C8          23.5110    48.4940     7.0180 C.2          1 SAH4001   0.0000
    19 N7          23.1790    49.7030     6.5120 N.2          1 SAH4001   0.0000
    20 C5          22.1770    49.5520     5.6150 C.ar         1 SAH4001   0.0000
    21 C6          21.4630    50.4500     4.8180 C.ar         1 SAH4001   0.0000
    22 N6          21.7140    51.7710     4.8460 N.pl3        1 SAH4001   0.0000
    23 N1          20.4740    49.9560     4.0020 N.ar         1 SAH4001   0.0000
    24 C2          20.1930    48.6000     3.9460 C.ar         1 SAH4001   0.0000
    25 N3          20.9050    47.7190     4.7350 N.ar         1 SAH4001   0.0000
    26 C4          21.8770    48.1910     5.5540 C.ar         1 SAH4001   0.0000
    27 H1          18.1518    39.7994     6.9798 H            1 SAH4001   0.0000
    28 H2          18.0798    40.6951     8.3434 H            1 SAH4001   0.0000
    29 HA          20.1650    39.0719     7.3943 H            1 SAH4001   0.0000
    30 HB1         21.2605    41.1101     7.5748 H            1 SAH4001   0.0000
    31 HB2         21.8237    40.0449     8.6771 H            1 SAH4001   0.0000
    32 HG1         20.4465    41.2404    10.3276 H            1 SAH4001   0.0000
    33 HG2         20.2721    42.4041     9.1953 H            1 SAH4001   0.0000
    34 H5'1        22.9748    44.6493     9.9735 H            1 SAH4001   0.0000
    35 H5'2        21.3611    44.4188     9.8772 H            1 SAH4001   0.0000
    36 H4'         21.6001    43.8314     7.5811 H            1 SAH4001   0.0000
    37 H3'         24.3295    43.8012     8.0532 H            1 SAH4001   0.0000
    38 H12         22.8401    43.4482     5.6864 H            1 SAH4001   0.0000
    39 H2'         24.6082    45.9617     7.4523 H            1 SAH4001   0.0000
    40 H14         24.4864    44.5919     5.0350 H            1 SAH4001   0.0000
    41 H1'         22.2218    45.6691     5.8552 H            1 SAH4001   0.0000
    42 H16         24.2129    48.3209     7.7089 H            1 SAH4001   0.0000
    43 H17         21.1881    52.3923     4.2651 H            1 SAH4001   0.0000
    44 H18         22.4265    52.1319     5.4477 H            1 SAH4001   0.0000
    45 H19         19.4768    48.2609     3.3360 H            1 SAH4001   0.0000
    46 H20         18.9650    41.2125     7.0724 H            1 SAH4001   0.0000
@<TRIPOS>BOND
     1    1    2       1
     2    2    3       1
     3    2    6       1
     4    3    4       1
     5    4    5       1
     6    5    9       1
     7    6    7      ar
     8    6    8      ar
     9    9   10       1
    10   10   11       1
    11   10   12       1
    12   11   16       1
    13   12   13       1
    14   12   14       1
    15   14   15       1
    16   14   16       1
    17   16   17       1
    18   17   18       1
    19   17   26       1
    20   18   19       2
    21   19   20       1
    22   20   21      ar
    23   20   26      ar
    24   21   22       1
    25   21   23      ar
    26   23   24      ar
    27   24   25      ar
    28   25   26      ar
    29    1   27       1
    30    1   28       1
    31    2   29       1
    32    3   30       1
    33    3   31       1
    34    4   32       1
    35    4   33       1
    36    1   46       1
    37    9   34       1
    38    9   35       1
    39   10   36       1
    40   12   37       1
    41   13   38       1
    42   14   39       1
    43   15   40       1
    44   16   41       1
    45   18   42       1
    46   22   43       1
    47   22   44       1
    48   24   45       1
@<TRIPOS>SUBSTRUCTURE
     1 SAH4001     1 GROUP             4 A     SAH     0 **** SAH A4001
