@<TRIPOS>MOLECULE
3c9t_TPS_2_ligand
   38    39     1     0     0
SMALL
NO_CHARGES


@<TRIPOS>ATOM
     1 CM2         39.2970    58.0420   133.5540 C.3          1 TPS308   0.0000
     2 N3          38.7110    64.0360   131.3380 N.2          1 TPS308   1.0000
     3 C2          38.0780    63.1000   130.5990 C.2          1 TPS308   0.0000
     4 S1          36.9280    63.6200   129.5610 S.3          1 TPS308   0.0000
     5 C5          37.2080    65.2510   130.0500 C.2          1 TPS308   0.0000
     6 C4          38.2070    65.2950   131.0150 C.2          1 TPS308   0.0000
     7 CM4         38.7430    66.5170   131.6970 C.3          1 TPS308   0.0000
     8 C6          36.3850    66.2850   129.4050 C.3          1 TPS308   0.0000
     9 C7          35.0510    65.6580   129.2450 C.3          1 TPS308   0.0000
    10 O7          34.0250    66.3280   128.5750 O.3          1 TPS308   0.0000
    11 N1A         40.5500    59.9120   132.6550 N.ar         1 TPS308   0.0000
    12 C2A         39.4010    59.4860   133.3200 C.ar         1 TPS308   0.0000
    13 N3A         38.4580    60.2860   133.7270 N.ar         1 TPS308   0.0000
    14 C4A         38.5480    61.6510   133.5070 C.ar         1 TPS308   0.0000
    15 N4A         37.5590    62.4330   133.9360 N.pl3        1 TPS308   0.0000
    16 C5A         39.7230    62.1890   132.7850 C.ar         1 TPS308   0.0000
    17 C6A         40.6880    61.2580   132.4120 C.ar         1 TPS308   0.0000
    18 C7A         39.8150    63.6650   132.3700 C.3          1 TPS308   0.0000
    19 P1          33.6390    65.9190   127.1170 P.3          1 TPS308   0.0000
    20 O1          34.8450    66.0560   126.2860 O.co2        1 TPS308   0.0000
    21 O2          32.5380    66.8730   126.7960 O.co2        1 TPS308  -1.0000
    22 O3          33.2080    64.4940   127.1540 O.co2        1 TPS308  -1.0000
    23 HM21        38.4426    57.8428   134.0339 H            1 TPS308   0.0000
    24 HM22        39.3070    57.5607   132.6775 H            1 TPS308   0.0000
    25 HM23        40.0705    57.7379   134.1101 H            1 TPS308   0.0000
    26 H4          38.3034    62.1294   130.6833 H            1 TPS308   0.0000
    27 HM41        38.2726    67.3272   131.3473 H            1 TPS308   0.0000
    28 HM42        38.5908    66.4425   132.6825 H            1 TPS308   0.0000
    29 HM43        39.7233    66.5967   131.5162 H            1 TPS308   0.0000
    30 H8          36.7663    66.5349   128.5150 H            1 TPS308   0.0000
    31 H9          36.3251    67.0992   129.9825 H            1 TPS308   0.0000
    32 H10         34.7130    65.4661   130.1664 H            1 TPS308   0.0000
    33 H11         35.1964    64.7972   128.7573 H            1 TPS308   0.0000
    34 H4A1        37.6028    63.4210   133.7881 H            1 TPS308   0.0000
    35 H4A2        36.7726    62.0321   134.4060 H            1 TPS308   0.0000
    36 H6A         41.5137    61.5807   131.9493 H            1 TPS308   0.0000
    37 H7A1        39.7068    64.2384   133.1821 H            1 TPS308   0.0000
    38 H7A2        40.7120    63.8324   131.9608 H            1 TPS308   0.0000
@<TRIPOS>BOND
     1    1   12       1
     2    2    3       2
     3    2    6       1
     4    2   18       1
     5    3    4       1
     6    4    5       1
     7    5    6       2
     8    5    8       1
     9    6    7       1
    10    8    9       1
    11    9   10       1
    12   10   19       1
    13   11   12      ar
    14   11   17      ar
    15   12   13      ar
    16   13   14      ar
    17   14   15       1
    18   14   16      ar
    19   16   17      ar
    20   16   18       1
    21   19   20      ar
    22   19   21      ar
    23   19   22      ar
    24    1   23       1
    25    1   24       1
    26    1   25       1
    27    3   26       1
    28    7   27       1
    29    7   28       1
    30    7   29       1
    31    8   30       1
    32    8   31       1
    33    9   32       1
    34    9   33       1
    35   15   34       1
    36   15   35       1
    37   17   36       1
    38   18   37       1
    39   18   38       1
@<TRIPOS>SUBSTRUCTURE
     1 TPS308      1 GROUP             4 B     TPS     0 **** TPS B 308
