@<TRIPOS>MOLECULE
4lrz_ADP_1_ligand
   39    41     1     0     0
SMALL
NO_CHARGES


@<TRIPOS>ATOM
     1 PB         -67.5070    15.7530   -27.8770 P.3          1 ADP300   0.0000
     2 O1B        -66.9940    14.4440   -28.3790 O.co2        1 ADP300   0.0000
     3 O2B        -66.4510    16.8030   -28.0360 O.co2        1 ADP300  -1.0000
     4 O3B        -68.8510    16.1080   -28.4230 O.co2        1 ADP300  -1.0000
     5 PA         -68.5700    14.6150   -25.5270 P.3          1 ADP300   0.0000
     6 O1A        -69.0120    13.5540   -26.4790 O.co2        1 ADP300   0.0000
     7 O2A        -67.8640    14.2340   -24.2650 O.co2        1 ADP300  -1.0000
     8 O3A        -67.6100    15.6360   -26.2910 O.3          1 ADP300   0.0000
     9 O5'        -69.7670    15.5500   -25.0860 O.3          1 ADP300   0.0000
    10 C5'        -70.9480    15.8170   -25.8470 C.3          1 ADP300   0.0000
    11 C4'        -71.8920    16.6060   -24.9500 C.3          1 ADP300   0.0000
    12 O4'        -71.2960    17.8660   -24.6460 O.3          1 ADP300   0.0000
    13 C3'        -73.2090    16.9490   -25.6370 C.3          1 ADP300   0.0000
    14 O3'        -74.1540    15.8840   -25.4060 O.3          1 ADP300   0.0000
    15 C2'        -73.6150    18.2230   -24.9480 C.3          1 ADP300   0.0000
    16 O2'        -74.3770    17.8610   -23.7900 O.3          1 ADP300   0.0000
    17 C1'        -72.3240    18.8350   -24.4120 C.3          1 ADP300   0.0000
    18 N9         -72.0020    20.1610   -25.0080 N.pl3        1 ADP300   0.0000
    19 C8         -71.4280    20.4140   -26.2080 C.2          1 ADP300   0.0000
    20 N7         -71.3030    21.7570   -26.4040 N.2          1 ADP300   0.0000
    21 C5         -71.8270    22.3660   -25.3220 C.ar         1 ADP300   0.0000
    22 C6         -72.0110    23.7560   -24.8720 C.ar         1 ADP300   0.0000
    23 N6         -71.6470    24.8080   -25.6160 N.pl3        1 ADP300   0.0000
    24 N1         -72.5940    23.9430   -23.6900 N.ar         1 ADP300   0.0000
    25 C2         -72.9900    22.9200   -22.9050 C.ar         1 ADP300   0.0000
    26 N3         -72.8440    21.6320   -23.2540 N.ar         1 ADP300   0.0000
    27 C4         -72.2770    21.3110   -24.4220 C.ar         1 ADP300   0.0000
    28 H5'1       -71.3777    14.9581   -26.1255 H            1 ADP300   0.0000
    29 H5'2       -70.7184    16.3535   -26.6591 H            1 ADP300   0.0000
    30 H4'        -72.0678    16.0980   -24.1068 H            1 ADP300   0.0000
    31 H3'        -73.0727    17.0999   -26.6161 H            1 ADP300   0.0000
    32 H5         -75.0202    16.1038   -25.8547 H            1 ADP300   0.0000
    33 H2'        -74.1110    18.8449   -25.5539 H            1 ADP300   0.0000
    34 H7         -75.1846    17.3426   -24.0711 H            1 ADP300   0.0000
    35 H1'        -72.4219    18.9530   -23.4238 H            1 ADP300   0.0000
    36 H9         -71.1365    19.7134   -26.8594 H            1 ADP300   0.0000
    37 H10        -71.7896    25.7364   -25.2729 H            1 ADP300   0.0000
    38 H11        -71.2325    24.6653   -26.5148 H            1 ADP300   0.0000
    39 H12        -73.4115    23.1307   -22.0230 H            1 ADP300   0.0000
@<TRIPOS>BOND
     1    1    2      ar
     2    1    3      ar
     3    1    4      ar
     4    1    8       1
     5    5    6      ar
     6    5    7      ar
     7    5    8       1
     8    5    9       1
     9    9   10       1
    10   10   11       1
    11   11   12       1
    12   11   13       1
    13   12   17       1
    14   13   14       1
    15   13   15       1
    16   15   16       1
    17   15   17       1
    18   17   18       1
    19   18   19       1
    20   18   27       1
    21   19   20       2
    22   20   21       1
    23   21   22      ar
    24   21   27      ar
    25   22   23       1
    26   22   24      ar
    27   24   25      ar
    28   25   26      ar
    29   26   27      ar
    30   25   39       1
    31   23   38       1
    32   23   37       1
    33   10   28       1
    34   10   29       1
    35   11   30       1
    36   13   31       1
    37   14   32       1
    38   15   33       1
    39   16   34       1
    40   17   35       1
    41   19   36       1
@<TRIPOS>SUBSTRUCTURE
     1 ADP300      1 GROUP             4 A     ADP     0 **** ADP A 300
