@<TRIPOS>MOLECULE
4xhg_ADP_1_ligand
   39    41     1     0     0
SMALL
NO_CHARGES


@<TRIPOS>ATOM
     1 PB          10.1040   -23.0050    -3.4340 P.3          1 ADP501   0.0000
     2 O1B         10.8730   -23.2380    -4.7140 O.co2        1 ADP501   0.0000
     3 O2B          9.2050   -24.1540    -3.0400 O.co2        1 ADP501  -1.0000
     4 O3B          9.4640   -21.6370    -3.3220 O.co2        1 ADP501  -1.0000
     5 PA          10.9620   -22.4570    -0.8310 P.3          1 ADP501   0.0000
     6 O1A          9.5250   -21.9890    -0.7640 O.co2        1 ADP501   0.0000
     7 O2A         11.4330   -23.5090     0.1480 O.co2        1 ADP501  -1.0000
     8 O3A         11.2620   -22.9770    -2.3200 O.3          1 ADP501   0.0000
     9 O5'         11.9030   -21.1520    -0.7590 O.3          1 ADP501   0.0000
    10 C5'         11.3810   -19.8240    -0.8030 C.3          1 ADP501   0.0000
    11 C4'         12.5810   -18.9030    -0.9620 C.3          1 ADP501   0.0000
    12 O4'         13.4220   -19.0470     0.1850 O.3          1 ADP501   0.0000
    13 C3'         13.3990   -19.3190    -2.1770 C.3          1 ADP501   0.0000
    14 O3'         13.7140   -18.1420    -2.9270 O.3          1 ADP501   0.0000
    15 C2'         14.6860   -19.9110    -1.6300 C.3          1 ADP501   0.0000
    16 O2'         15.7920   -19.4920    -2.4330 O.3          1 ADP501   0.0000
    17 C1'         14.7670   -19.3060    -0.2340 C.3          1 ADP501   0.0000
    18 N9          15.5040   -20.1420     0.7530 N.pl3        1 ADP501   0.0000
    19 C8          15.5070   -21.4800     0.9080 C.2          1 ADP501   0.0000
    20 N7          16.3220   -21.8520     1.9350 N.2          1 ADP501   0.0000
    21 C5          16.8690   -20.7290     2.4500 C.ar         1 ADP501   0.0000
    22 C6          17.8100   -20.3700     3.5480 C.ar         1 ADP501   0.0000
    23 N6          18.3760   -21.3050     4.3450 N.pl3        1 ADP501   0.0000
    24 N1          18.0920   -19.0580     3.7320 N.ar         1 ADP501   0.0000
    25 C2          17.5490   -18.0950     2.9670 C.ar         1 ADP501   0.0000
    26 N3          16.6890   -18.3440     1.9660 N.ar         1 ADP501   0.0000
    27 C4          16.3200   -19.6120     1.6650 C.ar         1 ADP501   0.0000
    28 H5'1        10.8931   -19.6148     0.0444 H            1 ADP501   0.0000
    29 H5'2        10.7595   -19.7211    -1.5796 H            1 ADP501   0.0000
    30 H4'         12.2801   -17.9539    -1.0547 H            1 ADP501   0.0000
    31 H3'         12.9039   -19.9835    -2.7368 H            1 ADP501   0.0000
    32 H5          14.7070   -18.0396    -2.9851 H            1 ADP501   0.0000
    33 H2'         14.6319   -20.9086    -1.5862 H            1 ADP501   0.0000
    34 H7          16.6363   -19.8846    -2.0683 H            1 ADP501   0.0000
    35 H1'         15.2403   -18.4281    -0.3069 H            1 ADP501   0.0000
    36 H9          14.9807   -22.1163     0.3440 H            1 ADP501   0.0000
    37 H10         19.0035   -21.0282     5.0727 H            1 ADP501   0.0000
    38 H11         18.1669   -22.2730     4.2064 H            1 ADP501   0.0000
    39 H12         17.7983   -17.1446     3.1529 H            1 ADP501   0.0000
@<TRIPOS>BOND
     1    1    2      ar
     2    1    3      ar
     3    1    4      ar
     4    1    8       1
     5    5    6      ar
     6    5    7      ar
     7    5    8       1
     8    5    9       1
     9    9   10       1
    10   10   11       1
    11   11   12       1
    12   11   13       1
    13   12   17       1
    14   13   14       1
    15   13   15       1
    16   15   16       1
    17   15   17       1
    18   17   18       1
    19   18   19       1
    20   18   27       1
    21   19   20       2
    22   20   21       1
    23   21   22      ar
    24   21   27      ar
    25   22   23       1
    26   22   24      ar
    27   24   25      ar
    28   25   26      ar
    29   26   27      ar
    30   25   39       1
    31   23   38       1
    32   23   37       1
    33   10   28       1
    34   10   29       1
    35   11   30       1
    36   13   31       1
    37   14   32       1
    38   15   33       1
    39   16   34       1
    40   17   35       1
    41   19   36       1
@<TRIPOS>SUBSTRUCTURE
     1 ADP501      1 GROUP             4 A     ADP     0 **** ADP A 501
