@<TRIPOS>MOLECULE
./coach420/1x55/ligand.pdb
 31 33 0 0 0
SMALL
GASTEIGER

@<TRIPOS>ATOM
      1  OAX       -3.0090   10.8110   41.4840 O.3   3002  NSS3002    -0.0508
      2  SBE       -2.9200    9.3950   41.6360 S.3   3002  NSS3002     0.0852
      3  OAY       -1.6060    8.8410   41.7460 O.3   3002  NSS3002    -0.0508
      4  NAT       -3.7820    8.8660   42.8570 N.am  3002  NSS3002    -0.0576
      5  C         -5.0860    9.0400   43.0810 C.2   3002  NSS3002     0.2803
      6  O         -5.8200    9.6880   42.3640 O.2   3002  NSS3002    -0.2701
      7  CA        -5.6500    8.3320   44.2880 C.3   3002  NSS3002     0.1801
      8  N         -6.8220    9.0600   44.7600 N.3   3002  NSS3002    -0.1225
      9  CB        -6.0570    6.9280   43.8120 C.3   3002  NSS3002     0.1169
     10  CG        -6.6340    6.0470   44.9020 C.2   3002  NSS3002     0.2627
     11  OD1       -5.9890    5.7040   45.8870 O.2   3002  NSS3002    -0.2716
     12  ND2       -7.9070    5.6660   44.7180 N.am  3002  NSS3002    -0.0877
     13  O5'       -3.6500    8.7110   40.3380 O.3   3002  NSS3002    -0.2230
     14  C5'       -3.6780    7.2670   40.3430 C.3   3002  NSS3002     0.2063
     15  C4'       -3.1820    6.7670   39.0010 C.3   3002  NSS3002     0.1822
     16  C3'       -1.7040    7.1200   38.7410 C.3   3002  NSS3002     0.2161
     17  O3'       -0.8440    6.1220   39.3240 O.3   3002  NSS3002    -0.2175
     18  C2'       -1.6500    7.1340   37.2300 C.3   3002  NSS3002     0.2337
     19  O2'       -1.6150    5.7710   36.7310 O.3   3002  NSS3002    -0.2155
     20  C1'       -3.0180    7.6740   36.8550 C.3   3002  NSS3002     0.2409
     21  O4'       -3.9190    7.4000   37.9390 O.3   3002  NSS3002    -0.3305
     22  N9        -3.0240    9.1310   36.4690 N.ar  3002  NSS3002    -0.2693
     23  C4        -3.1280    9.6220   35.2450 C.ar  3002  NSS3002     0.1692
     24  N3        -3.2390    9.0560   34.0270 N.ar  3002  NSS3002    -0.2048
     25  C2        -3.3340    9.8410   32.9350 C.ar  3002  NSS3002     0.2016
     26  N1        -3.3150   11.1700   33.0360 N.ar  3002  NSS3002    -0.2040
     27  C6        -3.2050   11.7940   34.2350 C.ar  3002  NSS3002     0.1919
     28  N6        -3.2190   13.1560   34.2780 N.pl3 3002  NSS3002    -0.1054
     29  C5        -3.0970   11.0170   35.3950 C.ar  3002  NSS3002     0.1518
     30  N7        -3.0050   11.3580   36.7160 N.ar  3002  NSS3002    -0.2193
     31  C8        -2.9420   10.1410   37.5160 C.ar  3002  NSS3002     0.1816
@<TRIPOS>BOND
     1     1     2    1
     2     2    13    1
     3     2     3    1
     4     2     4    1
     5     4     5   am
     6     5     6    2
     7     5     7    1
     8     7     9    1
     9     7     8    1
    10     9    10    1
    11    10    12   am
    12    10    11    2
    13    13    14    1
    14    14    15    1
    15    15    21    1
    16    15    16    1
    17    16    18    1
    18    16    17    1
    19    18    19    1
    20    18    20    1
    21    20    22    1
    22    20    21    1
    23    22    23   ar
    24    22    31   ar
    25    23    24   ar
    26    23    29   ar
    27    24    25   ar
    28    25    26   ar
    29    26    27   ar
    30    27    28    1
    31    27    29   ar
    32    29    30   ar
    33    30    31   ar
