@<TRIPOS>MOLECULE
3lba_HPA_1_ligand
   14    15     1     0     0
SMALL
NO_CHARGES


@<TRIPOS>ATOM
     1 N1         -12.3430   -38.1720     6.1270 N.pl3        1 HPA290   0.0000
     2 C2         -11.4660   -37.9390     5.0500 C.2          1 HPA290   0.0000
     3 N3         -11.6080   -36.6780     4.4590 N.2          1 HPA290   0.0000
     4 C4         -12.5160   -35.7330     4.9020 C.2          1 HPA290   0.0000
     5 C5         -13.3370   -35.9970     6.0000 C.2          1 HPA290   0.0000
     6 C6         -13.2600   -37.2420     6.6200 C.2          1 HPA290   0.0000
     7 O6         -14.0480   -37.4670     7.5990 O.2          1 HPA290   0.0000
     8 N7         -14.1320   -34.8960     6.2580 N.pl3        1 HPA290   0.0000
     9 C8         -13.8000   -33.9670     5.3050 C.2          1 HPA290   0.0000
    10 N9         -12.8160   -34.4580     4.5150 N.2          1 HPA290   0.0000
    11 H1         -10.8001   -38.6152     4.7350 H            1 HPA290   0.0000
    12 H2         -14.2205   -33.0649     5.2084 H            1 HPA290   0.0000
    13 H3         -12.3062   -39.0676     6.5703 H            1 HPA290   0.0000
    14 H4         -14.8086   -34.7973     6.9878 H            1 HPA290   0.0000
@<TRIPOS>BOND
     1    1    2       1
     2    1    6       1
     3    2    3       2
     4    3    4       1
     5    4    5       2
     6    4   10       1
     7    5    6       1
     8    5    8       1
     9    6    7       2
    10    8    9       1
    11    9   10       2
    12    2   11       1
    13    1   13       1
    14    9   12       1
    15    8   14       1
@<TRIPOS>SUBSTRUCTURE
     1 HPA290      1 GROUP             4 A     HPA     0 **** HPA A 290
