@<TRIPOS>MOLECULE
1iv2_CDP_4_ligand
   37    38     1     0     0
SMALL
NO_CHARGES


@<TRIPOS>ATOM
     1 O3B         -4.6390    42.0180    46.3840 O.co2        1 CDP1604   0.0000
     2 PB          -3.9350    42.0600    47.6930 P.3          1 CDP1604   0.0000
     3 O1B         -2.8010    41.0780    47.5530 O.co2        1 CDP1604  -1.0000
     4 O2B         -3.3710    43.4860    47.8980 O.co2        1 CDP1604  -1.0000
     5 O3A         -4.7030    41.8020    48.9720 O.3          1 CDP1604   0.0000
     6 PA          -6.2770    41.8400    49.1840 P.3          1 CDP1604   0.0000
     7 O1A         -6.9670    40.4710    49.5890 O.co2        1 CDP1604   0.0000
     8 O2A         -7.0740    42.6630    48.3050 O.co2        1 CDP1604  -1.0000
     9 O5'         -6.1810    42.6750    50.5680 O.3          1 CDP1604   0.0000
    10 C5'         -5.6860    43.9740    50.6070 C.3          1 CDP1604   0.0000
    11 C4'         -5.6220    44.3370    52.0230 C.3          1 CDP1604   0.0000
    12 O4'         -6.8150    44.5780    52.7920 O.3          1 CDP1604   0.0000
    13 C3'         -4.7150    43.4490    52.9190 C.3          1 CDP1604   0.0000
    14 O3'         -3.2760    43.3270    52.6790 O.3          1 CDP1604   0.0000
    15 C2'         -5.3400    43.5790    54.2980 C.3          1 CDP1604   0.0000
    16 O2'         -4.6350    44.7490    54.6720 O.3          1 CDP1604   0.0000
    17 C1'         -6.4930    44.5120    54.1720 C.3          1 CDP1604   0.0000
    18 N1          -7.7760    43.6970    54.4730 N.pl3        1 CDP1604   0.0000
    19 C2          -8.6390    44.0660    55.5700 C.2          1 CDP1604   0.0000
    20 O2          -8.3930    45.0340    56.3070 O.2          1 CDP1604   0.0000
    21 N3          -9.7600    43.3740    55.8680 N.2          1 CDP1604   0.0000
    22 C4         -10.1640    42.2450    55.0960 C.2          1 CDP1604   0.0000
    23 N4         -11.3000    41.5900    55.3980 N.pl3        1 CDP1604   0.0000
    24 C5          -9.3680    41.7940    53.9830 C.2          1 CDP1604   0.0000
    25 C6          -8.2170    42.5420    53.7450 C.2          1 CDP1604   0.0000
    26 H5'1        -6.2980    44.5942    50.1163 H            1 CDP1604   0.0000
    27 H5'2        -4.7747    44.0113    50.1969 H            1 CDP1604   0.0000
    28 H4'         -5.1584    45.2230    52.0202 H            1 CDP1604   0.0000
    29 H3'         -5.0274    42.5361    52.6564 H            1 CDP1604   0.0000
    30 H5          -3.0902    43.4386    51.7028 H            1 CDP1604   0.0000
    31 H2'         -5.3855    42.7922    54.9136 H            1 CDP1604   0.0000
    32 H7          -3.7797    44.4931    55.1225 H            1 CDP1604   0.0000
    33 H1'         -6.4054    45.3878    54.6467 H            1 CDP1604   0.0000
    34 H9         -11.5805    40.7987    54.8547 H            1 CDP1604   0.0000
    35 H10        -11.8638    41.8945    56.1658 H            1 CDP1604   0.0000
    36 H11         -9.6222    41.0046    53.4242 H            1 CDP1604   0.0000
    37 H12         -7.6373    42.2424    52.9872 H            1 CDP1604   0.0000
@<TRIPOS>BOND
     1    1    2      ar
     2    2    3      ar
     3    2    4      ar
     4    2    5       1
     5    5    6       1
     6    6    7      ar
     7    6    8      ar
     8    6    9       1
     9    9   10       1
    10   10   11       1
    11   11   12       1
    12   11   13       1
    13   12   17       1
    14   13   14       1
    15   13   15       1
    16   15   16       1
    17   15   17       1
    18   17   18       1
    19   18   19       1
    20   18   25       1
    21   19   20       2
    22   19   21       1
    23   21   22       2
    24   22   23       1
    25   22   24       1
    26   24   25       2
    27   25   37       1
    28   24   36       1
    29   23   35       1
    30   10   26       1
    31   10   27       1
    32   11   28       1
    33   13   29       1
    34   14   30       1
    35   15   31       1
    36   16   32       1
    37   17   33       1
    38   23   34       1
@<TRIPOS>SUBSTRUCTURE
     1 CDP1604     1 GROUP             4 D     CDP     0 **** CDP D1604
