@<TRIPOS>MOLECULE
5ain_QMR_4_ligand
   30    33     1     0     0
SMALL
NO_CHARGES


@<TRIPOS>ATOM
     1 C01         -1.6120   -30.6820   -47.3980 C.3          1 QMR1207   0.0000
     2 N02         -0.3160   -30.4690   -46.7960 N.4          1 QMR1207   1.0000
     3 C03          0.0070   -31.3230   -45.6520 C.3          1 QMR1207   0.0000
     4 C04         -1.1340   -31.5790   -44.7050 C.3          1 QMR1207   0.0000
     5 C05         -2.3650   -31.8650   -45.3640 C.3          1 QMR1207   0.0000
     6 C06         -2.7150   -30.8890   -46.4310 C.3          1 QMR1207   0.0000
     7 C07         -2.5010   -30.0110   -45.3840 C.ar         1 QMR1207   0.0000
     8 C08         -3.1490   -28.7490   -45.3540 C.ar         1 QMR1207   0.0000
     9 C09         -2.8690   -27.8560   -44.2650 C.ar         1 QMR1207   0.0000
    10 N10         -3.4990   -26.6120   -44.2390 N.ar         1 QMR1207   0.0000
    11 C11         -3.2360   -25.7900   -43.1920 C.ar         1 QMR1207   0.0000
    12 C12         -2.3380   -26.1210   -42.1740 C.ar         1 QMR1207   0.0000
    13 N13         -1.7110   -27.3160   -42.2390 N.ar         1 QMR1207   0.0000
    14 C14         -1.9950   -28.2020   -43.2840 C.ar         1 QMR1207   0.0000
    15 C15         -1.3380   -29.4580   -43.3320 C.ar         1 QMR1207   0.0000
    16 C16         -1.6380   -30.3010   -44.4150 C.ar         1 QMR1207   0.0000
    17 H1          -1.5548   -31.4906   -47.9835 H            1 QMR1207   0.0000
    18 H2          -1.8322   -29.8816   -47.9556 H            1 QMR1207   0.0000
    19 H3          -0.2732   -29.5180   -46.4899 H            1 QMR1207   0.0000
    20 H4           0.7447   -30.8858   -45.1375 H            1 QMR1207   0.0000
    21 H5           0.3224   -32.2048   -46.0028 H            1 QMR1207   0.0000
    22 H6          -0.9215   -32.1521   -43.9136 H            1 QMR1207   0.0000
    23 H7          -3.0961   -31.8621   -44.6817 H            1 QMR1207   0.0000
    24 H8          -2.2981   -32.7733   -45.7770 H            1 QMR1207   0.0000
    25 H9          -3.6422   -30.9354   -46.8027 H            1 QMR1207   0.0000
    26 H10         -3.7881   -28.4867   -46.0770 H            1 QMR1207   0.0000
    27 H11         -3.7056   -24.9083   -43.1469 H            1 QMR1207   0.0000
    28 H12         -2.1641   -25.4904   -41.4177 H            1 QMR1207   0.0000
    29 H13         -0.6876   -29.7324   -42.6237 H            1 QMR1207   0.0000
    30 H14          0.3776   -30.6243   -47.4994 H            1 QMR1207   0.0000
@<TRIPOS>BOND
     1    1    2       1
     2    1    6       1
     3    2    3       1
     4    3    4       1
     5    4    5       1
     6    4   16       1
     7    5    6       1
     8   15   16      ar
     9    6    7       1
    10    7    8      ar
    11    7   16      ar
    12    8    9      ar
    13    9   10      ar
    14    9   14      ar
    15   10   11      ar
    16   11   12      ar
    17   12   13      ar
    18   13   14      ar
    19   14   15      ar
    20    1   17       1
    21    1   18       1
    22    2   19       1
    23    3   20       1
    24    3   21       1
    25    4   22       1
    26    5   23       1
    27    5   24       1
    28    6   25       1
    29    8   26       1
    30   11   27       1
    31   12   28       1
    32   15   29       1
    33    2   30       1
@<TRIPOS>SUBSTRUCTURE
     1 QMR1207     1 GROUP             4 D     QMR     0 **** QMR D1207
