@<TRIPOS>MOLECULE
4hnb_FMN_1_ligand
   50    52     1     0     0
SMALL
NO_CHARGES


@<TRIPOS>ATOM
     1 N1          52.6540    -1.4420   -35.1240 N.2          1 FMN201   0.0000
     2 C2          51.8350    -2.4540   -35.6100 C.2          1 FMN201   0.0000
     3 O2          51.0190    -2.2290   -36.5080 O.2          1 FMN201   0.0000
     4 N3          51.9020    -3.7280   -35.0830 N.pl3        1 FMN201   0.0000
     5 C4          52.8070    -3.9850   -34.0790 C.2          1 FMN201   0.0000
     6 O4          52.8920    -5.1070   -33.6000 O.2          1 FMN201   0.0000
     7 C4A         53.6350    -2.9830   -33.5830 C.2          1 FMN201   0.0000
     8 N5          54.5270    -3.2820   -32.5670 N.2          1 FMN201   0.0000
     9 C5A         55.3630    -2.3010   -32.0700 C.ar         1 FMN201   0.0000
    10 C6          56.2660    -2.6270   -31.0650 C.ar         1 FMN201   0.0000
    11 C7          57.1040    -1.6540   -30.5530 C.ar         1 FMN201   0.0000
    12 C7M         58.0610    -2.0130   -29.4640 C.3          1 FMN201   0.0000
    13 C8          57.0430    -0.3580   -31.0590 C.ar         1 FMN201   0.0000
    14 C8M         57.9460     0.6950   -30.5040 C.3          1 FMN201   0.0000
    15 C9          56.1400    -0.0260   -32.0650 C.ar         1 FMN201   0.0000
    16 C9A         55.2960    -1.0000   -32.5870 C.ar         1 FMN201   0.0000
    17 N10         54.4050    -0.7080   -33.6180 N.pl3        1 FMN201   0.0000
    18 C10         53.5630    -1.6960   -34.1090 C.2          1 FMN201   0.0000
    19 C1'         54.2670     0.6830   -34.1600 C.3          1 FMN201   0.0000
    20 C2'         55.2780     1.2160   -35.1620 C.3          1 FMN201   0.0000
    21 O2'         56.5790     0.7240   -34.8840 O.3          1 FMN201   0.0000
    22 C3'         55.2250     2.7420   -35.0390 C.3          1 FMN201   0.0000
    23 O3'         55.7910     3.1240   -33.8110 O.3          1 FMN201   0.0000
    24 C4'         53.8010     3.2940   -35.0730 C.3          1 FMN201   0.0000
    25 O4'         53.1540     2.7880   -36.2220 O.3          1 FMN201   0.0000
    26 C5'         53.7750     4.8270   -35.1050 C.3          1 FMN201   0.0000
    27 O5'         54.7540     5.2510   -36.0260 O.3          1 FMN201   0.0000
    28 P           54.4230     6.0220   -37.4080 P.3          1 FMN201   0.0000
    29 O1P         55.6590     6.8470   -37.6430 O.co2        1 FMN201   0.0000
    30 O2P         54.1910     5.0410   -38.5300 O.co2        1 FMN201  -1.0000
    31 O3P         53.1700     6.8640   -37.3350 O.co2        1 FMN201  -1.0000
    32 H1          51.3029    -4.4519   -35.4251 H            1 FMN201   0.0000
    33 H2          56.3094    -3.5622   -30.7135 H            1 FMN201   0.0000
    34 H7M1        58.5910    -1.2051   -29.2062 H            1 FMN201   0.0000
    35 H7M2        57.5526    -2.3455   -28.6697 H            1 FMN201   0.0000
    36 H7M3        58.6802    -2.7288   -29.7869 H            1 FMN201   0.0000
    37 H8M1        57.7758     1.5614   -30.9735 H            1 FMN201   0.0000
    38 H8M2        57.7680     0.8052   -29.5262 H            1 FMN201   0.0000
    39 H8M3        58.8986     0.4232   -30.6409 H            1 FMN201   0.0000
    40 H9          56.0984     0.9111   -32.4116 H            1 FMN201   0.0000
    41 H1'1        54.2866     1.3014   -33.3744 H            1 FMN201   0.0000
    42 H1'2        53.3709     0.7326   -34.6010 H            1 FMN201   0.0000
    43 H2'         55.0081     0.9451   -36.0860 H            1 FMN201   0.0000
    44 H13         57.1942     1.4915   -34.7040 H            1 FMN201   0.0000
    45 H3'         55.7526     3.1496   -35.7843 H            1 FMN201   0.0000
    46 H15         56.7721     3.2771   -33.9294 H            1 FMN201   0.0000
    47 H4'         53.3116     2.9784   -34.2600 H            1 FMN201   0.0000
    48 H17         53.8290     2.6320   -36.9431 H            1 FMN201   0.0000
    49 H5'1        53.9814     5.1905   -34.1966 H            1 FMN201   0.0000
    50 H5'2        52.8729     5.1467   -35.3950 H            1 FMN201   0.0000
@<TRIPOS>BOND
     1    1    2       1
     2    1   18       2
     3    2    3       2
     4    2    4       1
     5    4    5       1
     6    5    6       2
     7    5    7       1
     8    7    8       2
     9    7   18       1
    10    8    9       1
    11    9   10      ar
    12    9   16      ar
    13   10   11      ar
    14   11   12       1
    15   11   13      ar
    16   13   14       1
    17   13   15      ar
    18   15   16      ar
    19   16   17       1
    20   17   18       1
    21   17   19       1
    22   19   20       1
    23   20   21       1
    24   20   22       1
    25   22   23       1
    26   22   24       1
    27   24   25       1
    28   24   26       1
    29   26   27       1
    30   27   28       1
    31   28   29      ar
    32   28   30      ar
    33   28   31      ar
    34    4   32       1
    35   10   33       1
    36   12   34       1
    37   12   35       1
    38   12   36       1
    39   14   37       1
    40   14   38       1
    41   14   39       1
    42   15   40       1
    43   19   41       1
    44   19   42       1
    45   20   43       1
    46   21   44       1
    47   22   45       1
    48   23   46       1
    49   24   47       1
    50   25   48       1
    51   26   49       1
    52   26   50       1
@<TRIPOS>SUBSTRUCTURE
     1 FMN201      1 GROUP             4 A     FMN     0 **** FMN A 201
