@<TRIPOS>MOLECULE
1q24_ATP_1_ligand
   43    45     1     0     0
SMALL
NO_CHARGES


@<TRIPOS>ATOM
     1 PG          15.9430     8.2310    -0.3810 P.3          1 ATP400   0.0000
     2 O1G         15.2570     7.0170     0.1550 O.co2        1 ATP400   0.0000
     3 O2G         17.3200     8.4330     0.2930 O.co2        1 ATP400  -1.0000
     4 O3G         16.1650     8.0810    -1.9020 O.co2        1 ATP400  -1.0000
     5 PB          14.2180    10.4140    -0.9960 P.3          1 ATP400   0.0000
     6 O1B         14.9670    11.6790    -1.1620 O.co2        1 ATP400   0.0000
     7 O2B         14.0130     9.6740    -2.3370 O.co2        1 ATP400  -1.0000
     8 O3B         15.0150     9.4920     0.0400 O.3          1 ATP400   0.0000
     9 PA          11.7530     9.5830     0.1840 P.3          1 ATP400   0.0000
    10 O1A         10.6510     9.4480    -0.7980 O.co2        1 ATP400   0.0000
    11 O2A         12.4400     8.2380     0.4830 O.co2        1 ATP400  -1.0000
    12 O3A         12.8080    10.7280    -0.2750 O.3          1 ATP400   0.0000
    13 O5'         11.1700    10.2550     1.5240 O.3          1 ATP400   0.0000
    14 C5'         11.8880    10.2240     2.7390 C.3          1 ATP400   0.0000
    15 C4'         10.9770     9.7190     3.8490 C.3          1 ATP400   0.0000
    16 O4'          9.7730    10.4700     3.9350 O.3          1 ATP400   0.0000
    17 C3'         10.5200     8.2840     3.6570 C.3          1 ATP400   0.0000
    18 O3'         11.5180     7.3420     3.9910 O.3          1 ATP400   0.0000
    19 C2'          9.3100     8.2810     4.5700 C.3          1 ATP400   0.0000
    20 O2'          9.6760     8.1450     5.9210 O.3          1 ATP400   0.0000
    21 C1'          8.7060     9.6590     4.3870 C.3          1 ATP400   0.0000
    22 N9           7.5870     9.6290     3.4170 N.pl3        1 ATP400   0.0000
    23 C8           7.6800     9.5950     2.0430 C.2          1 ATP400   0.0000
    24 N7           6.4300     9.5740     1.5100 N.2          1 ATP400   0.0000
    25 C5           5.5350     9.5910     2.5210 C.ar         1 ATP400   0.0000
    26 C6           4.1390     9.5850     2.5410 C.ar         1 ATP400   0.0000
    27 N6           3.4460     9.5930     1.4020 N.pl3        1 ATP400   0.0000
    28 N1           3.4750     9.6080     3.7590 N.ar         1 ATP400   0.0000
    29 C2           4.1940     9.6290     4.9400 C.ar         1 ATP400   0.0000
    30 N3           5.5780     9.6430     4.9090 N.ar         1 ATP400   0.0000
    31 C4           6.2440     9.6250     3.7240 C.ar         1 ATP400   0.0000
    32 H5'1        12.2072    11.1451     2.9620 H            1 ATP400   0.0000
    33 H5'2        12.6736     9.6121     2.6473 H            1 ATP400   0.0000
    34 H4'         11.4626     9.7883     4.7205 H            1 ATP400   0.0000
    35 H3'         10.2289     8.1462     2.7103 H            1 ATP400   0.0000
    36 H5          11.1654     6.4174     3.8467 H            1 ATP400   0.0000
    37 H2'          8.6618     7.5683     4.3019 H            1 ATP400   0.0000
    38 H7          10.5209     7.6141     5.9856 H            1 ATP400   0.0000
    39 H1'          8.3765     9.9996     5.2676 H            1 ATP400   0.0000
    40 H9           8.5325     9.5870     1.5204 H            1 ATP400   0.0000
    41 H10          2.4463     9.5886     1.4249 H            1 ATP400   0.0000
    42 H11          3.9260     9.6034     0.5248 H            1 ATP400   0.0000
    43 H12          3.7139     9.6341     5.8172 H            1 ATP400   0.0000
@<TRIPOS>BOND
     1    1    2      ar
     2    1    3      ar
     3    1    4      ar
     4    1    8       1
     5    5    6      ar
     6    5    7      ar
     7    5    8       1
     8    5   12       1
     9    9   10      ar
    10    9   11      ar
    11    9   12       1
    12    9   13       1
    13   13   14       1
    14   14   15       1
    15   15   16       1
    16   15   17       1
    17   16   21       1
    18   17   18       1
    19   17   19       1
    20   19   20       1
    21   19   21       1
    22   21   22       1
    23   22   23       1
    24   22   31       1
    25   23   24       2
    26   24   25       1
    27   25   26      ar
    28   25   31      ar
    29   26   27       1
    30   26   28      ar
    31   28   29      ar
    32   29   30      ar
    33   30   31      ar
    34   29   43       1
    35   27   42       1
    36   27   41       1
    37   23   40       1
    38   14   32       1
    39   14   33       1
    40   15   34       1
    41   17   35       1
    42   18   36       1
    43   19   37       1
    44   20   38       1
    45   21   39       1
@<TRIPOS>SUBSTRUCTURE
     1 ATP400      1 GROUP             4 A     ATP     0 **** ATP A 400
