@<TRIPOS>MOLECULE
4cp3_RBT_1_ligand
  126   131     1     0     0
SMALL
NO_CHARGES


@<TRIPOS>ATOM
     1 C1          -5.1970    14.9310    -7.9240 C.ar         1 RBT1129   0.0000
     2 C2          -5.4390    15.8670    -9.0380 C.ar         1 RBT1129   0.0000
     3 C3          -4.9390    15.4970   -10.4150 C.ar         1 RBT1129   0.0000
     4 C4          -4.2770    14.2120   -10.6420 C.ar         1 RBT1129   0.0000
     5 C5          -3.4050    12.0000    -9.7550 C.ar         1 RBT1129   0.0000
     6 C6          -3.1930    11.1210    -8.6240 C.ar         1 RBT1129   0.0000
     7 C7          -3.6320    11.4510    -7.2600 C.ar         1 RBT1129   0.0000
     8 C8          -4.3040    12.7440    -7.0570 C.ar         1 RBT1129   0.0000
     9 C9          -4.5120    13.6500    -8.2100 C.ar         1 RBT1129   0.0000
    10 C10         -4.0590    13.3120    -9.5990 C.ar         1 RBT1129   0.0000
    11 C11         -2.7840    11.3180   -10.9020 C.2          1 RBT1129   0.0000
    12 C12         -2.0590    10.1150   -10.3670 C.3          1 RBT1129   0.0000
    13 C13         -2.4090     8.8820   -11.1710 C.3          1 RBT1129   0.0000
    14 C14         -3.4300    10.5060    -6.1150 C.3          1 RBT1129   0.0000
    15 C15         -5.7590    18.2230    -9.1740 C.2          1 RBT1129   0.0000
    16 C16         -6.0550    19.4010    -8.3440 C.2          1 RBT1129   0.0000
    17 C17         -5.1290    20.3150    -7.9460 C.2          1 RBT1129   0.0000
    18 C18         -3.7010    20.2740    -8.2910 C.2          1 RBT1129   0.0000
    19 C19         -2.8930    21.2350    -7.8240 C.2          1 RBT1129   0.0000
    20 C20         -1.4070    21.2920    -8.1310 C.3          1 RBT1129   0.0000
    21 C21         -0.7540    19.9210    -7.9820 C.3          1 RBT1129   0.0000
    22 C22          0.7330    19.8630    -8.3520 C.3          1 RBT1129   0.0000
    23 C23          1.2260    18.4260    -8.2480 C.3          1 RBT1129   0.0000
    24 C24          0.4510    17.4770    -9.1710 C.3          1 RBT1129   0.0000
    25 C25          1.1190    16.1020    -9.2620 C.3          1 RBT1129   0.0000
    26 C26          0.1000    14.9510    -9.2530 C.3          1 RBT1129   0.0000
    27 C27          0.8480    13.6170    -9.1200 C.3          1 RBT1129   0.0000
    28 C28          0.1090    12.5510    -9.9160 C.2          1 RBT1129   0.0000
    29 C29          0.1090    11.2610    -9.5760 C.2          1 RBT1129   0.0000
    30 C30         -7.4820    19.5870    -7.8950 C.3          1 RBT1129   0.0000
    31 C31         -1.2320    21.8460    -9.5430 C.3          1 RBT1129   0.0000
    32 C32          1.5920    20.7760    -7.4920 C.3          1 RBT1129   0.0000
    33 C33          0.2340    18.0400   -10.5860 C.3          1 RBT1129   0.0000
    34 C34         -0.9930    15.0680    -8.1810 C.3          1 RBT1129   0.0000
    35 C35          3.3530    15.9450   -10.3670 C.2          1 RBT1129   0.0000
    36 C36          4.0570    14.6140   -10.3720 C.3          1 RBT1129   0.0000
    37 C37          2.3140    12.8670    -7.3420 C.3          1 RBT1129   0.0000
    38 C38         -4.3750    15.2880   -12.7630 C.3          1 RBT1129   0.0000
    39 C39         -5.2950    14.3430   -13.5380 C.3          1 RBT1129   0.0000
    40 C40         -2.9210    15.4660   -13.2160 C.3          1 RBT1129   0.0000
    41 C41         -4.9210    14.2300   -15.0260 C.3          1 RBT1129   0.0000
    42 C42         -2.7310    15.1390   -14.7130 C.3          1 RBT1129   0.0000
    43 C43         -4.5450    16.6440   -15.4640 C.3          1 RBT1129   0.0000
    44 C44         -5.2340    17.1340   -16.7530 C.3          1 RBT1129   0.0000
    45 C45         -6.2710    18.2070   -16.4190 C.3          1 RBT1129   0.0000
    46 C46         -5.9060    16.0450   -17.6040 C.3          1 RBT1129   0.0000
    47 N1          -5.9790    17.0300    -8.6020 N.am         1 RBT1129   0.0000
    48 N2          -4.9520    16.0420   -11.6230 N.pl3        1 RBT1129   0.0000
    49 N3          -3.9530    14.0990   -11.9490 N.pl3        1 RBT1129   0.0000
    50 N4          -3.9720    15.2610   -15.5080 N.4          1 RBT1129   1.0000
    51 O1          -5.5980    15.2220    -6.7660 O.3          1 RBT1129   0.0000
    52 O2          -4.7590    13.1180    -5.8300 O.3          1 RBT1129   0.0000
    53 O3          -2.5480    10.0070    -9.0260 O.3          1 RBT1129   0.0000
    54 O4          -2.7690    11.6880   -12.0470 O.2          1 RBT1129   0.0000
    55 O5          -0.6270    10.2740   -10.3730 O.3          1 RBT1129   0.0000
    56 O6           1.0110    13.3390    -7.7110 O.3          1 RBT1129   0.0000
    57 O7           1.8910    16.0160   -10.4780 O.3          1 RBT1129   0.0000
    58 O8           3.9860    16.9840   -10.2980 O.2          1 RBT1129   0.0000
    59 O9           1.0830    18.0210    -6.8750 O.3          1 RBT1129   0.0000
    60 O10         -0.8870    19.4950    -6.6300 O.3          1 RBT1129   0.0000
    61 O11         -5.3240    18.3870   -10.3050 O.2          1 RBT1129   0.0000
    62 H1          -1.9184     8.0928   -10.8015 H            1 RBT1129   0.0000
    63 H2          -3.3939     8.7174   -11.1171 H            1 RBT1129   0.0000
    64 H3          -2.1460     9.0209   -12.1258 H            1 RBT1129   0.0000
    65 H4          -3.7951    10.9136    -5.2780 H            1 RBT1129   0.0000
    66 H5          -3.9070     9.6475    -6.3032 H            1 RBT1129   0.0000
    67 H6          -2.4531    10.3262    -5.9995 H            1 RBT1129   0.0000
    68 H7          -5.4443    21.0729    -7.3749 H            1 RBT1129   0.0000
    69 H8          -3.3382    19.5402    -8.8654 H            1 RBT1129   0.0000
    70 H9          -3.2873    21.9490    -7.2455 H            1 RBT1129   0.0000
    71 H10         -0.9735    21.9220    -7.4866 H            1 RBT1129   0.0000
    72 H11         -1.2470    19.2744    -8.5641 H            1 RBT1129   0.0000
    73 H12          0.8272    20.1549    -9.3038 H            1 RBT1129   0.0000
    74 H13          2.1947    18.3976    -8.4945 H            1 RBT1129   0.0000
    75 H14         -0.4525    17.3410    -8.7646 H            1 RBT1129   0.0000
    76 H15          1.7350    15.9918    -8.4820 H            1 RBT1129   0.0000
    77 H16         -0.3553    14.9495   -10.1434 H            1 RBT1129   0.0000
    78 H17          1.7570    13.7295    -9.5213 H            1 RBT1129   0.0000
    79 H18         -0.3995    12.8301   -10.7306 H            1 RBT1129   0.0000
    80 H19          0.6171    10.9633    -8.7678 H            1 RBT1129   0.0000
    81 H20         -7.5519    20.4172    -7.3420 H            1 RBT1129   0.0000
    82 H21         -8.0754    19.6689    -8.6957 H            1 RBT1129   0.0000
    83 H22         -7.7653    18.7983    -7.3494 H            1 RBT1129   0.0000
    84 H23         -0.2580    21.8916    -9.7649 H            1 RBT1129   0.0000
    85 H24         -1.6949    21.2466   -10.1960 H            1 RBT1129   0.0000
    86 H25         -1.6285    22.7627    -9.5929 H            1 RBT1129   0.0000
    87 H26          2.5479    20.6986    -7.7754 H            1 RBT1129   0.0000
    88 H27          1.2871    21.7220    -7.6025 H            1 RBT1129   0.0000
    89 H28          1.5060    20.5080    -6.5324 H            1 RBT1129   0.0000
    90 H29         -0.2746    17.3763   -11.1345 H            1 RBT1129   0.0000
    91 H30         -0.2848    18.8930   -10.5294 H            1 RBT1129   0.0000
    92 H31          1.1203    18.2167   -11.0140 H            1 RBT1129   0.0000
    93 H32         -1.6089    14.2829    -8.2459 H            1 RBT1129   0.0000
    94 H33         -0.5705    15.0863    -7.2748 H            1 RBT1129   0.0000
    95 H34         -1.5114    15.9111    -8.3242 H            1 RBT1129   0.0000
    96 H35          5.0430    14.7581   -10.2885 H            1 RBT1129   0.0000
    97 H36          3.7342    14.0633    -9.6022 H            1 RBT1129   0.0000
    98 H37          3.8613    14.1366   -11.2286 H            1 RBT1129   0.0000
    99 H38          2.3413    12.7000    -6.3564 H            1 RBT1129   0.0000
   100 H39          2.5109    12.0165    -7.8298 H            1 RBT1129   0.0000
   101 H40          2.9983    13.5553    -7.5825 H            1 RBT1129   0.0000
   102 H41         -6.2328    14.6835   -13.4697 H            1 RBT1129   0.0000
   103 H42         -5.2395    13.4339   -13.1251 H            1 RBT1129   0.0000
   104 H43         -2.3392    14.8568   -12.6771 H            1 RBT1129   0.0000
   105 H44         -2.6481    16.4148   -13.0567 H            1 RBT1129   0.0000
   106 H45         -5.7605    14.3039   -15.5643 H            1 RBT1129   0.0000
   107 H46         -4.5072    13.3320   -15.1755 H            1 RBT1129   0.0000
   108 H47         -2.3964    14.1999   -14.7914 H            1 RBT1129   0.0000
   109 H48         -2.0509    15.7678   -15.0901 H            1 RBT1129   0.0000
   110 H49         -5.2205    16.6715   -14.7271 H            1 RBT1129   0.0000
   111 H50         -3.7993    17.2772   -15.2565 H            1 RBT1129   0.0000
   112 H51         -4.5322    17.5646   -17.3205 H            1 RBT1129   0.0000
   113 H52         -6.7119    18.5180   -17.2610 H            1 RBT1129   0.0000
   114 H53         -6.9601    17.8245   -15.8036 H            1 RBT1129   0.0000
   115 H54         -5.8192    18.9802   -15.9741 H            1 RBT1129   0.0000
   116 H55         -6.3211    16.4624   -18.4123 H            1 RBT1129   0.0000
   117 H56         -5.2208    15.3749   -17.8896 H            1 RBT1129   0.0000
   118 H57         -6.6133    15.5890   -17.0639 H            1 RBT1129   0.0000
   119 H58         -6.5797    16.9971    -7.8032 H            1 RBT1129   0.0000
   120 H59         -5.3459    16.9502   -11.7643 H            1 RBT1129   0.0000
   121 H60         -3.4812    13.3059   -12.3341 H            1 RBT1129   0.0000
   122 H61         -5.4363    14.5907    -6.0075 H            1 RBT1129   0.0000
   123 H62         -4.6391    12.5096    -5.0455 H            1 RBT1129   0.0000
   124 H63          0.3121    18.5066    -6.4628 H            1 RBT1129   0.0000
   125 H64         -1.8567    19.4364    -6.3928 H            1 RBT1129   0.0000
   126 H65         -3.7486    15.0515   -16.4599 H            1 RBT1129   0.0000
@<TRIPOS>BOND
     1    1    2      ar
     2    1    9      ar
     3    1   51       1
     4    2    3      ar
     5    2   47       1
     6    3    4      ar
     7    3   48       1
     8    4   10      ar
     9    4   49       1
    10    5    6      ar
    11    5   10      ar
    12    5   11       1
    13    6    7      ar
    14    6   53       1
    15    7    8      ar
    16    7   14       1
    17    8    9      ar
    18    8   52       1
    19    9   10      ar
    20   11   12       1
    21   11   54       2
    22   12   13       1
    23   12   53       1
    24   12   55       1
    25   15   16       1
    26   15   47      am
    27   15   61       2
    28   16   17       2
    29   16   30       1
    30   17   18       1
    31   18   19       2
    32   19   20       1
    33   20   21       1
    34   20   31       1
    35   21   22       1
    36   21   60       1
    37   22   23       1
    38   22   32       1
    39   23   24       1
    40   23   59       1
    41   24   25       1
    42   24   33       1
    43   25   26       1
    44   25   57       1
    45   26   27       1
    46   26   34       1
    47   27   28       1
    48   27   56       1
    49   28   29       2
    50   29   55       1
    51   35   36       1
    52   35   57       1
    53   35   58       2
    54   37   56       1
    55   38   39       1
    56   38   40       1
    57   38   48       1
    58   38   49       1
    59   39   41       1
    60   40   42       1
    61   41   50       1
    62   42   50       1
    63   43   44       1
    64   43   50       1
    65   44   45       1
    66   44   46       1
    67   13   62       1
    68   13   63       1
    69   13   64       1
    70   14   65       1
    71   14   66       1
    72   14   67       1
    73   17   68       1
    74   18   69       1
    75   19   70       1
    76   20   71       1
    77   21   72       1
    78   22   73       1
    79   23   74       1
    80   24   75       1
    81   25   76       1
    82   26   77       1
    83   27   78       1
    84   28   79       1
    85   29   80       1
    86   30   81       1
    87   30   82       1
    88   30   83       1
    89   31   84       1
    90   31   85       1
    91   31   86       1
    92   32   87       1
    93   32   88       1
    94   32   89       1
    95   33   90       1
    96   33   91       1
    97   33   92       1
    98   34   93       1
    99   34   94       1
   100   34   95       1
   101   36   96       1
   102   36   97       1
   103   36   98       1
   104   37   99       1
   105   37  100       1
   106   37  101       1
   107   39  102       1
   108   39  103       1
   109   40  104       1
   110   40  105       1
   111   41  106       1
   112   41  107       1
   113   42  108       1
   114   42  109       1
   115   43  110       1
   116   43  111       1
   117   44  112       1
   118   45  113       1
   119   45  114       1
   120   45  115       1
   121   46  116       1
   122   46  117       1
   123   46  118       1
   124   47  119       1
   125   48  120       1
   126   49  121       1
   127   51  122       1
   128   52  123       1
   129   59  124       1
   130   60  125       1
   131   50  126       1
@<TRIPOS>SUBSTRUCTURE
     1 RBT1129     1 GROUP             4 B     RBT     0 **** RBT B1129
