@<TRIPOS>MOLECULE
4j8t_DOG_2_ligand
   62    66     1     0     0
SMALL
NO_CHARGES


@<TRIPOS>ATOM
     1 O23         -0.2230   -24.6320    31.2040 O.2          1 DOG201   0.0000
     2 C23         -0.2740   -25.5360    31.9950 C.2          1 DOG201   0.0000
     3 C22          0.2140   -26.8820    31.8710 C.2          1 DOG201   0.0000
     4 O21         -1.1680   -25.4670    32.9120 O.3          1 DOG201   0.0000
     5 C21         -1.0800   -26.5740    33.6290 C.3          1 DOG201   0.0000
     6 C20         -0.2960   -27.5390    32.8350 C.2          1 DOG201   0.0000
     7 C17          0.0480   -28.9410    33.1700 C.3          1 DOG201   0.0000
     8 C16          0.6480   -29.0930    34.5640 C.3          1 DOG201   0.0000
     9 C13         -1.1230   -29.9880    33.0820 C.3          1 DOG201   0.0000
    10 C18         -2.2960   -29.5790    32.2770 C.3          1 DOG201   0.0000
    11 C12         -0.4860   -31.2990    32.5170 C.3          1 DOG201   0.0000
    12 O12         -0.1930   -31.1140    31.2510 O.3          1 DOG201   0.0000
    13 C14         -1.4860   -30.2230    34.5670 C.3          1 DOG201   0.0000
    14 C15         -0.1590   -30.0620    35.3130 C.3          1 DOG201   0.0000
    15 O14         -2.3100   -29.3120    34.9110 O.3          1 DOG201   0.0000
    16 C8          -2.2250   -31.5460    34.8080 C.3          1 DOG201   0.0000
    17 C7          -2.4790   -31.7760    36.2660 C.3          1 DOG201   0.0000
    18 C9          -1.5450   -32.7540    34.1560 C.3          1 DOG201   0.0000
    19 C11         -1.3660   -32.5000    32.7000 C.3          1 DOG201   0.0000
    20 C10         -2.4490   -33.9790    34.3580 C.3          1 DOG201   0.0000
    21 C19         -3.7310   -33.7180    33.7250 C.3          1 DOG201   0.0000
    22 C5          -2.7260   -34.2330    35.8160 C.3          1 DOG201   0.0000
    23 C6          -3.3160   -32.9800    36.4600 C.3          1 DOG201   0.0000
    24 C4          -1.5000   -34.6010    36.5380 C.3          1 DOG201   0.0000
    25 C3          -0.7530   -35.7550    35.9400 C.3          1 DOG201   0.0000
    26 O32         -1.4710   -36.8320    36.1570 O.3          1 DOG201   0.0000
    27 C2          -0.5840   -35.5790    34.4470 C.3          1 DOG201   0.0000
    28 C1          -1.8450   -35.1920    33.7650 C.3          1 DOG201   0.0000
    29 H1           0.8316   -27.2330    31.1672 H            1 DOG201   0.0000
    30 H2          -1.9930   -26.9395    33.8103 H            1 DOG201   0.0000
    31 H3          -0.6179   -26.3863    34.4957 H            1 DOG201   0.0000
    32 H4           0.7484   -29.2324    32.5184 H            1 DOG201   0.0000
    33 H5           0.6380   -28.2104    35.0340 H            1 DOG201   0.0000
    34 H6           1.5897   -29.4217    34.4922 H            1 DOG201   0.0000
    35 H7          -2.9777   -30.3105    32.2858 H            1 DOG201   0.0000
    36 H8          -2.6938   -28.7480    32.6659 H            1 DOG201   0.0000
    37 H9          -2.0089   -29.4022    31.3356 H            1 DOG201   0.0000
    38 H10          0.3680   -31.4644    33.0103 H            1 DOG201   0.0000
    39 H11         -0.2571   -31.9847    30.7633 H            1 DOG201   0.0000
    40 H12         -0.3260   -29.7247    36.2394 H            1 DOG201   0.0000
    41 H13          0.3165   -30.9405    35.3588 H            1 DOG201   0.0000
    42 H14         -1.8067   -28.5232    35.2637 H            1 DOG201   0.0000
    43 H15         -3.1211   -31.4549    34.3737 H            1 DOG201   0.0000
    44 H16         -2.9513   -30.9814    36.6475 H            1 DOG201   0.0000
    45 H17         -1.6058   -31.9024    36.7366 H            1 DOG201   0.0000
    46 H18         -0.6556   -32.9145    34.5841 H            1 DOG201   0.0000
    47 H19         -0.9396   -33.2963    32.2709 H            1 DOG201   0.0000
    48 H20         -2.2564   -32.3305    32.2775 H            1 DOG201   0.0000
    49 H21         -4.3309   -34.5084    33.8487 H            1 DOG201   0.0000
    50 H22         -4.1510   -32.9122    34.1425 H            1 DOG201   0.0000
    51 H23         -3.5932   -33.5538    32.7483 H            1 DOG201   0.0000
    52 H24         -3.3860   -34.9801    35.8955 H            1 DOG201   0.0000
    53 H25         -4.2158   -32.8097    36.0582 H            1 DOG201   0.0000
    54 H26         -3.4148   -33.1436    37.4416 H            1 DOG201   0.0000
    55 H27         -1.7496   -34.8421    37.4759 H            1 DOG201   0.0000
    56 H28         -0.8926   -33.8067    36.5484 H            1 DOG201   0.0000
    57 H29          0.1418   -35.8466    36.3771 H            1 DOG201   0.0000
    58 H30         -1.0038   -37.6274    35.7709 H            1 DOG201   0.0000
    59 H31         -0.2628   -36.4425    34.0581 H            1 DOG201   0.0000
    60 H32          0.0983   -34.8662    34.2848 H            1 DOG201   0.0000
    61 H33         -1.6489   -35.0159    32.8004 H            1 DOG201   0.0000
    62 H34         -2.4969   -35.9465    33.8403 H            1 DOG201   0.0000
@<TRIPOS>BOND
     1    1    2       2
     2    2    3       1
     3    2    4       1
     4    3    6       2
     5    4    5       1
     6    5    6       1
     7    6    7       1
     8    7    8       1
     9    7    9       1
    10    8   14       1
    11    9   10       1
    12    9   11       1
    13    9   13       1
    14   11   12       1
    15   11   19       1
    16   13   14       1
    17   13   15       1
    18   13   16       1
    19   16   17       1
    20   16   18       1
    21   17   23       1
    22   18   19       1
    23   18   20       1
    24   20   21       1
    25   20   22       1
    26   20   28       1
    27   22   23       1
    28   22   24       1
    29   24   25       1
    30   25   26       1
    31   25   27       1
    32   27   28       1
    33    3   29       1
    34    5   30       1
    35    5   31       1
    36    7   32       1
    37    8   33       1
    38    8   34       1
    39   10   35       1
    40   10   36       1
    41   10   37       1
    42   11   38       1
    43   12   39       1
    44   14   40       1
    45   14   41       1
    46   15   42       1
    47   16   43       1
    48   17   44       1
    49   17   45       1
    50   18   46       1
    51   19   47       1
    52   19   48       1
    53   21   49       1
    54   21   50       1
    55   21   51       1
    56   22   52       1
    57   23   53       1
    58   23   54       1
    59   24   55       1
    60   24   56       1
    61   25   57       1
    62   26   58       1
    63   27   59       1
    64   27   60       1
    65   28   61       1
    66   28   62       1
@<TRIPOS>SUBSTRUCTURE
     1 DOG201      1 GROUP             4 B     DOG     0 **** DOG B 201
