@<TRIPOS>MOLECULE
4b4w_9L9_1_ligand
   48    49     1     0     0
SMALL
NO_CHARGES


@<TRIPOS>ATOM
     1 N2A         17.2200    -4.5350    30.9650 N.pl3        1 9L92001   0.0000
     2 N1          15.8900    -5.8340    29.5460 N.2          1 9L92001   0.0000
     3 C2          16.3120    -4.6280    29.9830 C.2          1 9L92001   0.0000
     4 N3          15.8190    -3.5060    29.4290 N.pl3        1 9L92001   0.0000
     5 C4          14.9100    -3.5650    28.4450 C.2          1 9L92001   0.0000
     6 O4A         14.4480    -2.4020    27.9190 O.2          1 9L92001   0.0000
     7 N5A         13.5380    -4.8400    27.0040 N.2          1 9L92001   0.0000
     8 C5          14.4640    -4.8080    27.9710 C.2          1 9L92001   0.0000
     9 C6          14.9700    -5.9520    28.5710 C.2          1 9L92001   0.0000
    10 N7          14.5650    -7.1510    28.1680 N.pl3        1 9L92001   0.0000
    11 O8A         14.9700    -4.4480    25.3020 O.3          1 9L92001   0.0000
    12 N9          12.7530    -4.6780    24.8900 N.pl3        1 9L92001   0.0000
    13 C1B         12.6810    -4.3430    23.5930 C.ar         1 9L92001   0.0000
    14 C2B         13.5750    -3.4400    23.0060 C.ar         1 9L92001   0.0000
    15 C3B         13.4230    -3.0410    21.6780 C.ar         1 9L92001   0.0000
    16 C4B         12.3520    -3.5170    20.9240 C.ar         1 9L92001   0.0000
    17 C5B         11.4250    -4.3750    21.5230 C.ar         1 9L92001   0.0000
    18 C6B         11.5810    -4.7720    22.8530 C.ar         1 9L92001   0.0000
    19 C7B         12.1720    -3.0400    19.4740 C.2          1 9L92001   0.0000
    20 O7B         12.6360    -1.9540    19.1250 O.2          1 9L92001   0.0000
    21 N           11.3850    -3.7900    18.7000 N.am         1 9L92001   0.0000
    22 CB          10.7170    -4.6620    16.4920 C.3          1 9L92001   0.0000
    23 CG          11.9800    -5.2140    15.8310 C.3          1 9L92001   0.0000
    24 CD          12.2510    -6.6570    16.2630 C.2          1 9L92001   0.0000
    25 OE1         12.8260    -7.3960    15.4270 O.co2        1 9L92001   0.0000
    26 OE2         11.8930    -6.9920    17.4220 O.co2        1 9L92001  -1.0000
    27 C            9.7760    -2.5220    17.3540 C.2          1 9L92001   0.0000
    28 O            8.9440    -2.7140    18.2790 O.co2        1 9L92001   0.0000
    29 OXT          9.6500    -1.6720    16.4470 O.co2        1 9L92001  -1.0000
    30 CA          11.0360    -3.4070    17.3140 C.3          1 9L92001   0.0000
    31 CAW         13.8200    -4.6180    25.7070 C.2          1 9L92001   0.0000
    32 H2A1        17.5251    -3.6364    31.2805 H            1 9L92001   0.0000
    33 H2A2        17.5922    -5.3642    31.3820 H            1 9L92001   0.0000
    34 H3          13.8810    -7.2301    27.4429 H            1 9L92001   0.0000
    35 H4          14.9441    -7.9747    28.5897 H            1 9L92001   0.0000
    36 H5          11.9062    -5.0150    25.3016 H            1 9L92001   0.0000
    37 H2B         14.3335    -3.0757    23.5463 H            1 9L92001   0.0000
    38 H3B         14.0833    -2.4127    21.2666 H            1 9L92001   0.0000
    39 H5B         10.6436    -4.7073    20.9948 H            1 9L92001   0.0000
    40 H6B         10.8989    -5.3679    23.2769 H            1 9L92001   0.0000
    41 H10         11.0173    -4.6429    19.0706 H            1 9L92001   0.0000
    42 HB1         10.3311    -5.3598    17.0955 H            1 9L92001   0.0000
    43 HB2         10.0511    -4.4291    15.7832 H            1 9L92001   0.0000
    44 HG1         12.7594    -4.6444    16.0920 H            1 9L92001   0.0000
    45 HG2         11.8656    -5.1877    14.8379 H            1 9L92001   0.0000
    46 HA          11.7937    -2.9063    16.8954 H            1 9L92001   0.0000
    47 H16         16.1348    -2.6151    29.7555 H            1 9L92001   0.0000
    48 H8A         15.1389    -4.2856    24.3298 H            1 9L92001   0.0000
@<TRIPOS>BOND
     1    1    3       1
     2    2    3       2
     3    2    9       1
     4    3    4       1
     5    4    5       1
     6    5    6       2
     7    5    8       1
     8    7    8       1
     9    7   31       2
    10    8    9       2
    11    9   10       1
    12   11   31       1
    13   12   13       1
    14   12   31       1
    15   13   14      ar
    16   13   18      ar
    17   14   15      ar
    18   15   16      ar
    19   16   17      ar
    20   16   19       1
    21   17   18      ar
    22   19   20       2
    23   19   21      am
    24   21   30       1
    25   22   23       1
    26   22   30       1
    27   23   24       1
    28   24   25      ar
    29   24   26      ar
    30   27   28      ar
    31   27   29      ar
    32   27   30       1
    33    1   32       1
    34    1   33       1
    35   30   46       1
    36    4   47       1
    37   10   34       1
    38   10   35       1
    39   12   36       1
    40   14   37       1
    41   15   38       1
    42   17   39       1
    43   18   40       1
    44   21   41       1
    45   22   42       1
    46   22   43       1
    47   23   44       1
    48   23   45       1
    49   11   48       1
@<TRIPOS>SUBSTRUCTURE
     1 9L92001     1 GROUP             4 A     9L9     0 **** 9L9 A2001
