@<TRIPOS>MOLECULE
4bgq_38R_1_ligand
   48    51     1     0     0
SMALL
NO_CHARGES


@<TRIPOS>ATOM
     1 C4          47.4910    29.8590    51.8370 C.ar         1 38R1000   0.0000
     2 C5          46.5970    29.8630    50.7670 C.ar         1 38R1000   0.0000
     3 C6          45.8060    30.9680    50.5420 C.ar         1 38R1000   0.0000
     4 N1          45.9360    32.0080    51.3830 N.ar         1 38R1000   0.0000
     5 N3          47.5840    30.9160    52.6520 N.ar         1 38R1000   0.0000
     6 C1U         51.2490    29.2890    57.0440 C.3          1 38R1000   0.0000
     7 C1T         51.6820    29.1880    55.6050 C.3          1 38R1000   0.0000
     8 C1R         50.8310    28.6600    54.5200 C.2          1 38R1000   0.0000
     9 C1S         49.8250    29.3500    53.8910 C.2          1 38R1000   0.0000
    10 N1Q         50.9230    27.4620    53.9570 N.pl3        1 38R1000   0.0000
    11 N1P         50.0110    27.3570    52.9810 N.2          1 38R1000   0.0000
    12 C1H         49.3320    28.4890    52.9210 C.2          1 38R1000   0.0000
    13 N1G         48.2710    28.6710    52.0030 N.pl3        1 38R1000   0.0000
    14 C1Y         52.7050    31.1020    56.5610 C.3          1 38R1000   0.0000
    15 C2          46.7820    31.9830    52.4120 C.ar         1 38R1000   0.0000
    16 N1I         46.8110    33.1560    53.1920 N.pl3        1 38R1000   0.0000
    17 C1J         47.3770    33.2130    54.4860 C.ar         1 38R1000   0.0000
    18 C1K         47.1960    32.2070    55.4090 C.ar         1 38R1000   0.0000
    19 C1L         47.7570    32.3450    56.6600 C.ar         1 38R1000   0.0000
    20 C1O         48.0830    34.3500    54.8090 C.ar         1 38R1000   0.0000
    21 C1N         48.6540    34.4740    56.0630 C.ar         1 38R1000   0.0000
    22 C1M         48.4780    33.4720    57.0000 C.ar         1 38R1000   0.0000
    23 C1V         49.1020    33.6140    58.3410 C.3          1 38R1000   0.0000
    24 C01         52.2580    30.2330    57.6690 C.3          1 38R1000   0.0000
    25 C1Z         50.5460    33.9560    58.3650 C.1          1 38R1000   0.0000
    26 C03         52.7020    30.2250    55.3770 C.3          1 38R1000   0.0000
    27 N1A         51.6450    34.2730    58.3680 N.1          1 38R1000   0.0000
    28 H1          46.5304    29.0670    50.1654 H            1 38R1000   0.0000
    29 H2          45.1585    30.9953    49.7804 H            1 38R1000   0.0000
    30 H1U1        51.2790    28.3932    57.4874 H            1 38R1000   0.0000
    31 H1U2        50.3241    29.6632    57.1109 H            1 38R1000   0.0000
    32 H1T         52.2959    28.4040    55.6970 H            1 38R1000   0.0000
    33 H1S         49.5127    30.2789    54.0901 H            1 38R1000   0.0000
    34 H1G         48.0446    27.8953    51.4139 H            1 38R1000   0.0000
    35 H1Y1        53.6242    31.4542    56.7372 H            1 38R1000   0.0000
    36 H1Y2        52.0734    31.8670    56.4354 H            1 38R1000   0.0000
    37 H1I         46.4112    33.9898    52.8112 H            1 38R1000   0.0000
    38 H1K         46.6670    31.3911    55.1755 H            1 38R1000   0.0000
    39 H1L         47.6397    31.6155    57.3338 H            1 38R1000   0.0000
    40 H1O         48.1829    35.0850    54.1383 H            1 38R1000   0.0000
    41 H1N         49.1922    35.2854    56.2912 H            1 38R1000   0.0000
    42 H1V1        48.9871    32.7456    58.8233 H            1 38R1000   0.0000
    43 H1V2        48.6107    34.3346    58.8303 H            1 38R1000   0.0000
    44 H17         53.0294    29.7221    58.0483 H            1 38R1000   0.0000
    45 H18         51.8305    30.7764    58.3915 H            1 38R1000   0.0000
    46 H19         52.4755    30.7543    54.5593 H            1 38R1000   0.0000
    47 H20         53.6008    29.8019    55.2619 H            1 38R1000   0.0000
    48 H1Q         51.5722    26.7483    54.2202 H            1 38R1000   0.0000
@<TRIPOS>BOND
     1    1    2      ar
     2    1    5      ar
     3    1   13       1
     4    2    3      ar
     5    3    4      ar
     6    4   15      ar
     7    5   15      ar
     8    6    7       1
     9    6   24       1
    10    7    8       1
    11    7   26       1
    12    8    9       2
    13    8   10       1
    14    9   12       1
    15   10   11       1
    16   11   12       2
    17   12   13       1
    18   14   24       1
    19   14   26       1
    20   15   16       1
    21   16   17       1
    22   17   18      ar
    23   17   20      ar
    24   18   19      ar
    25   19   22      ar
    26   20   21      ar
    27   21   22      ar
    28   22   23       1
    29   23   25       1
    30   25   27       3
    31    2   28       1
    32    3   29       1
    33    6   30       1
    34    6   31       1
    35    7   32       1
    36    9   33       1
    37   26   47       1
    38   13   34       1
    39   14   35       1
    40   14   36       1
    41   16   37       1
    42   18   38       1
    43   19   39       1
    44   20   40       1
    45   21   41       1
    46   23   42       1
    47   23   43       1
    48   24   44       1
    49   24   45       1
    50   26   46       1
    51   10   48       1
@<TRIPOS>SUBSTRUCTURE
     1 38R1000     1 GROUP             4 A     38R     0 **** 38R A1000
