@<TRIPOS>MOLECULE
1oe6_HMU_1_ligand
   16    16     1     0     0
SMALL
NO_CHARGES


@<TRIPOS>ATOM
     1 N1           4.3480    20.9780    42.9670 N.pl3        1 HMU1282   0.0000
     2 C2           4.2560    22.3410    42.5220 C.2          1 HMU1282   0.0000
     3 O2           5.1670    23.2740    42.9470 O.2          1 HMU1282   0.0000
     4 N3           3.1430    22.5280    41.6260 N.pl3        1 HMU1282   0.0000
     5 C4           2.2500    21.4960    41.2140 C.2          1 HMU1282   0.0000
     6 O3           1.1610    18.8090    39.9440 O.3          1 HMU1282   0.0000
     7 O4           1.3110    21.6510    40.3790 O.2          1 HMU1282   0.0000
     8 C5           2.4210    20.0860    41.7010 C.2          1 HMU1282   0.0000
     9 CM5          1.5230    18.8690    41.2870 C.3          1 HMU1282   0.0000
    10 C6           3.4970    19.9200    42.6260 C.2          1 HMU1282   0.0000
    11 H1           5.1017    20.7616    43.5876 H            1 HMU1282   0.0000
    12 H2           2.9857    23.4481    41.2673 H            1 HMU1282   0.0000
    13 H3           1.1046    19.7356    39.5722 H            1 HMU1282   0.0000
    14 HM51         2.0222    18.0310    41.5074 H            1 HMU1282   0.0000
    15 HM52         0.6836    18.9093    41.8290 H            1 HMU1282   0.0000
    16 H6           3.6465    19.0228    43.0416 H            1 HMU1282   0.0000
@<TRIPOS>BOND
     1    1    2       1
     2    1   10       1
     3    2    3       2
     4    2    4       1
     5    4    5       1
     6    5    7       2
     7    5    8       1
     8    6    9       1
     9    8    9       1
    10    8   10       2
    11    1   11       1
    12    4   12       1
    13    6   13       1
    14    9   14       1
    15    9   15       1
    16   10   16       1
@<TRIPOS>SUBSTRUCTURE
     1 HMU1282     1 GROUP             4 A     HMU     0 **** HMU A1282
