@<TRIPOS>MOLECULE
4hjf_C2E_1_ligand
   70    76     1     0     0
SMALL
NO_CHARGES


@<TRIPOS>ATOM
     1 P1         -19.7750    22.3630   -12.3260 P.3          1 C2E603   0.0000
     2 O2P        -20.9700    23.2820   -12.4040 O.2          1 C2E603   0.0000
     3 O1P        -19.5930    21.4480   -11.1770 O.3          1 C2E603   0.0000
     4 O5'        -18.4580    23.2660   -12.4560 O.3          1 C2E603   0.0000
     5 C5'        -18.3950    24.2800   -13.4530 C.3          1 C2E603   0.0000
     6 C4'        -17.0020    24.7830   -13.5500 C.3          1 C2E603   0.0000
     7 O4'        -16.6750    25.5470   -12.3540 O.3          1 C2E603   0.0000
     8 C3'        -15.8810    23.7940   -13.6930 C.3          1 C2E603   0.0000
     9 O3'        -15.8100    23.2840   -15.0360 O.3          1 C2E603   0.0000
    10 C2'        -14.6640    24.5910   -13.2190 C.3          1 C2E603   0.0000
    11 O2'        -14.2220    25.3920   -14.3150 O.3          1 C2E603   0.0000
    12 C1'        -15.2540    25.4340   -12.0770 C.3          1 C2E603   0.0000
    13 N9         -15.0190    24.8000   -10.7870 N.pl3        1 C2E603   0.0000
    14 C8         -15.7400    23.8060   -10.2220 C.2          1 C2E603   0.0000
    15 N7         -15.2100    23.4630    -9.0180 N.2          1 C2E603   0.0000
    16 C5         -14.1310    24.2490    -8.8390 C.2          1 C2E603   0.0000
    17 C6         -13.1160    24.4290    -7.8050 C.2          1 C2E603   0.0000
    18 O6         -13.1080    23.7240    -6.8140 O.2          1 C2E603   0.0000
    19 N1         -12.2090    25.3900    -8.0130 N.2          1 C2E603   0.0000
    20 C2         -12.1730    26.1540    -9.1130 C.2          1 C2E603   0.0000
    21 N2         -11.2610    27.1010    -9.2400 N.pl3        1 C2E603   0.0000
    22 N3         -13.0740    26.0920   -10.1200 N.pl3        1 C2E603   0.0000
    23 C4         -14.0460    25.1460    -9.9910 C.2          1 C2E603   0.0000
    24 P11        -15.0130    21.8750   -15.2750 P.3          1 C2E603   0.0000
    25 O21        -15.0710    21.7500   -16.7670 O.2          1 C2E603   0.0000
    26 O11        -13.6870    21.8490   -14.5210 O.3          1 C2E603   0.0000
    27 O5A        -15.9140    20.7840   -14.6420 O.3          1 C2E603   0.0000
    28 C5A        -16.8810    20.0140   -15.4040 C.3          1 C2E603   0.0000
    29 C4A        -18.3070    20.5580   -15.3010 C.3          1 C2E603   0.0000
    30 O4A        -19.2000    19.7910   -16.2160 O.3          1 C2E603   0.0000
    31 C3A        -18.9460    20.4320   -13.9100 C.3          1 C2E603   0.0000
    32 O3A        -19.8280    21.5400   -13.7000 O.3          1 C2E603   0.0000
    33 C2A        -19.7570    19.1310   -14.0620 C.3          1 C2E603   0.0000
    34 O2A        -20.8250    19.0240   -13.1310 O.3          1 C2E603   0.0000
    35 C1A        -20.2770    19.2890   -15.4790 C.3          1 C2E603   0.0000
    36 N91        -20.7260    18.0220   -16.0700 N.pl3        1 C2E603   0.0000
    37 C81        -20.1270    16.8270   -15.9550 C.2          1 C2E603   0.0000
    38 N71        -20.7800    15.8620   -16.6750 N.2          1 C2E603   0.0000
    39 C51        -21.8150    16.5340   -17.2310 C.2          1 C2E603   0.0000
    40 C61        -22.8890    16.1070   -18.0910 C.2          1 C2E603   0.0000
    41 O61        -22.9270    14.9330   -18.4110 O.2          1 C2E603   0.0000
    42 N11        -23.7270    17.0680   -18.4670 N.pl3        1 C2E603   0.0000
    43 C21        -23.6260    18.3740   -18.1110 C.2          1 C2E603   0.0000
    44 N21        -24.5580    19.2490   -18.5790 N.pl3        1 C2E603   0.0000
    45 N31        -22.6700    18.8490   -17.2890 N.2          1 C2E603   0.0000
    46 C41        -21.7570    17.9420   -16.8620 C.2          1 C2E603   0.0000
    47 H5'1       -19.0056    25.0319   -13.2044 H            1 C2E603   0.0000
    48 H5'2       -18.6756    23.9003   -14.3345 H            1 C2E603   0.0000
    49 H4'        -16.9580    25.4068   -14.3303 H            1 C2E603   0.0000
    50 H3'        -16.0366    23.0326   -13.0636 H            1 C2E603   0.0000
    51 H2'        -13.9372    23.9878   -12.8904 H            1 C2E603   0.0000
    52 H6         -14.2628    26.3580   -14.0597 H            1 C2E603   0.0000
    53 H1'        -14.8385    26.3436   -12.0834 H            1 C2E603   0.0000
    54 H8         -16.5484    23.3830   -10.6315 H            1 C2E603   0.0000
    55 H9         -11.2399    27.6676   -10.0637 H            1 C2E603   0.0000
    56 H10        -10.5917    27.2514    -8.5124 H            1 C2E603   0.0000
    57 H5A1       -16.8753    19.0733   -15.0649 H            1 C2E603   0.0000
    58 H5A2       -16.6068    20.0233   -16.3656 H            1 C2E603   0.0000
    59 H4A        -18.3092    21.5199   -15.5745 H            1 C2E603   0.0000
    60 H3A        -18.2577    20.3607   -13.1881 H            1 C2E603   0.0000
    61 H2A        -19.1556    18.3347   -13.9971 H            1 C2E603   0.0000
    62 H16        -20.5837    19.5079   -12.2898 H            1 C2E603   0.0000
    63 H1A        -21.0280    19.9493   -15.4895 H            1 C2E603   0.0000
    64 H18        -19.3048    16.6612   -15.4105 H            1 C2E603   0.0000
    65 H19        -24.4910    16.8087   -19.0579 H            1 C2E603   0.0000
    66 H20        -24.5049    20.2162   -18.3307 H            1 C2E603   0.0000
    67 H21        -25.2957    18.9245   -19.1711 H            1 C2E603   0.0000
    68 H1P        -18.7514    20.9220   -11.2998 H            1 C2E603   0.0000
    69 H23        -13.8585    21.9537   -13.5414 H            1 C2E603   0.0000
    70 H24        -13.0294    26.7029   -10.9105 H            1 C2E603   0.0000
@<TRIPOS>BOND
     1    1    2       2
     2    1    3       1
     3    1    4       1
     4    1   32       1
     5    4    5       1
     6    5    6       1
     7    6    7       1
     8    6    8       1
     9    7   12       1
    10    8    9       1
    11    8   10       1
    12    9   24       1
    13   10   11       1
    14   10   12       1
    15   12   13       1
    16   13   14       1
    17   13   23       1
    18   14   15       2
    19   15   16       1
    20   16   17       1
    21   16   23       2
    22   17   18       2
    23   17   19       1
    24   19   20       2
    25   20   21       1
    26   20   22       1
    27   22   23       1
    28   24   25       2
    29   24   26       1
    30   24   27       1
    31   27   28       1
    32   28   29       1
    33   29   30       1
    34   29   31       1
    35   30   35       1
    36   31   32       1
    37   31   33       1
    38   33   34       1
    39   33   35       1
    40   35   36       1
    41   36   37       1
    42   36   46       1
    43   37   38       2
    44   38   39       1
    45   39   40       1
    46   39   46       2
    47   40   41       2
    48   40   42       1
    49   42   43       1
    50   43   44       1
    51   43   45       2
    52   45   46       1
    53   44   67       1
    54    5   47       1
    55    5   48       1
    56    6   49       1
    57    8   50       1
    58   10   51       1
    59   11   52       1
    60   12   53       1
    61   14   54       1
    62   26   69       1
    63   21   55       1
    64   21   56       1
    65    3   68       1
    66   28   57       1
    67   28   58       1
    68   29   59       1
    69   31   60       1
    70   33   61       1
    71   34   62       1
    72   35   63       1
    73   37   64       1
    74   42   65       1
    75   44   66       1
    76   22   70       1
@<TRIPOS>SUBSTRUCTURE
     1 C2E603      1 GROUP             4 A     C2E     0 **** C2E A 603
