@<TRIPOS>MOLECULE
./coach420/1k0n/ligand.pdb
 20 19 0 0 0
SMALL
GASTEIGER

@<TRIPOS>ATOM
      1  N1         2.5610   -9.8920   31.0300 N.3   1001  GSH1001    -0.1208
      2  CA1        2.4740   -8.4490   31.1990 C.3   1001  GSH1001     0.1948
      3  C1         3.7930   -7.9260   31.6550 C.2   1001  GSH1001     0.3819
      4  O11        4.3040   -7.0040   31.0410 O.co2 1001  GSH1001    -0.2441
      5  O12        4.3410   -8.4450   32.6220 O.co2 1001  GSH1001    -0.2441
      6  CB1        1.4270   -8.2030   32.2780 C.3   1001  GSH1001     0.0402
      7  CG1        0.9400   -6.7610   32.2190 C.3   1001  GSH1001     0.0889
      8  CD1       -0.2620   -6.5630   33.1080 C.2   1001  GSH1001     0.2418
      9  OE1       -0.4900   -7.3160   34.0370 O.2   1001  GSH1001    -0.2733
     10  N2        -1.0470   -5.5280   32.8430 N.am  1001  GSH1001    -0.1968
     11  CA2       -2.1680   -5.2550   33.7230 C.3   1001  GSH1001     0.1843
     12  C2        -3.4830   -5.4790   33.0310 C.2   1001  GSH1001     0.2627
     13  O2        -3.5110   -5.7500   31.8420 O.2   1001  GSH1001    -0.2714
     14  CB2       -2.0940   -3.8510   34.3250 C.3   1001  GSH1001     0.0997
     15  SG2       -1.2410   -2.5970   33.3340 S.3   1001  GSH1001    -0.0797
     16  N3        -4.5860   -5.3750   33.7710 N.am  1001  GSH1001    -0.1917
     17  CA3       -5.8880   -5.6030   33.1690 C.3   1001  GSH1001     0.2285
     18  C3        -7.0030   -5.8380   34.1690 C.2   1001  GSH1001     0.3865
     19  O31       -8.0810   -5.2870   34.0080 O.co2 1001  GSH1001    -0.2437
     20  O32       -6.8530   -6.5790   35.1290 O.co2 1001  GSH1001    -0.2437
@<TRIPOS>BOND
     1     1     2    1
     2     2     3    1
     3     2     6    1
     4     3     4   ar
     5     3     5   ar
     6     6     7    1
     7     7     8    1
     8     8    10   am
     9     8     9    2
    10    10    11    1
    11    11    12    1
    12    11    14    1
    13    12    13    2
    14    12    16   am
    15    14    15    1
    16    16    17    1
    17    17    18    1
    18    18    19   ar
    19    18    20   ar
