@<TRIPOS>MOLECULE
3nut_SAH_1_ligand
   46    48     1     0     0
SMALL
NO_CHARGES


@<TRIPOS>ATOM
     1 N           51.6510    45.2350    12.3990 N.4          1 SAH1501   1.0000
     2 CA          51.2370    43.8030    12.2830 C.3          1 SAH1501   0.0000
     3 CB          50.4830    43.5550    10.9670 C.3          1 SAH1501   0.0000
     4 CG          49.0630    44.1200    11.0210 C.3          1 SAH1501   0.0000
     5 SD          47.9690    43.3950     9.8220 S.3          1 SAH1501   0.0000
     6 C           52.5020    43.0270    12.3120 C.2          1 SAH1501   0.0000
     7 O           53.5140    43.7050    12.1970 O.co2        1 SAH1501   0.0000
     8 OXT         52.5850    41.7890    12.4390 O.co2        1 SAH1501  -1.0000
     9 C5'         47.2140    42.0800    10.7520 C.3          1 SAH1501   0.0000
    10 C4'         47.5050    40.7060    10.1150 C.3          1 SAH1501   0.0000
    11 O4'         48.7770    40.2330    10.5770 O.3          1 SAH1501   0.0000
    12 C3'         46.5190    39.5730    10.4360 C.3          1 SAH1501   0.0000
    13 O3'         45.4400    39.4450     9.4990 O.3          1 SAH1501   0.0000
    14 C2'         47.3810    38.3320    10.3500 C.3          1 SAH1501   0.0000
    15 O2'         47.5900    37.9160     8.9840 O.3          1 SAH1501   0.0000
    16 C1'         48.7180    38.8280    10.8650 C.3          1 SAH1501   0.0000
    17 N9          48.8830    38.5580    12.3130 N.pl3        1 SAH1501   0.0000
    18 C8          48.9370    39.4640    13.3100 C.2          1 SAH1501   0.0000
    19 N7          49.1170    38.8330    14.5110 N.2          1 SAH1501   0.0000
    20 C5          49.1830    37.4960    14.2900 C.ar         1 SAH1501   0.0000
    21 C6          49.3690    36.2510    15.0970 C.ar         1 SAH1501   0.0000
    22 N6          49.5220    36.2800    16.4460 N.pl3        1 SAH1501   0.0000
    23 N1          49.3710    35.0560    14.4540 N.ar         1 SAH1501   0.0000
    24 C2          49.2170    34.9840    13.1150 C.ar         1 SAH1501   0.0000
    25 N3          49.0450    36.0730    12.3290 N.ar         1 SAH1501   0.0000
    26 C4          49.0170    37.3300    12.8420 C.ar         1 SAH1501   0.0000
    27 H1          50.9282    45.7551    12.8540 H            1 SAH1501   0.0000
    28 H2          52.4933    45.2961    12.9345 H            1 SAH1501   0.0000
    29 HA          50.6616    43.5489    13.0604 H            1 SAH1501   0.0000
    30 HB1         50.4350    42.5701    10.8004 H            1 SAH1501   0.0000
    31 HB2         50.9800    43.9956    10.2195 H            1 SAH1501   0.0000
    32 HG1         49.1072    45.1051    10.8550 H            1 SAH1501   0.0000
    33 HG2         48.6895    43.9522    11.9333 H            1 SAH1501   0.0000
    34 H5'1        46.2248    42.2247    10.7770 H            1 SAH1501   0.0000
    35 H5'2        47.5761    42.0904    11.6841 H            1 SAH1501   0.0000
    36 H4'         47.5486    40.8182     9.1223 H            1 SAH1501   0.0000
    37 H3'         46.1600    39.6803    11.3632 H            1 SAH1501   0.0000
    38 H12         44.8457    38.6900     9.7761 H            1 SAH1501   0.0000
    39 H2'         47.0190    37.5890    10.9129 H            1 SAH1501   0.0000
    40 H14         47.2317    36.9908     8.8588 H            1 SAH1501   0.0000
    41 H1'         49.4492    38.3645    10.3645 H            1 SAH1501   0.0000
    42 H16         48.8571    40.4535    13.1894 H            1 SAH1501   0.0000
    43 H17         49.6442    35.4272    16.9538 H            1 SAH1501   0.0000
    44 H18         49.5124    37.1541    16.9316 H            1 SAH1501   0.0000
    45 H19         49.2306    34.0825    12.6824 H            1 SAH1501   0.0000
    46 H20         51.8084    45.6115    11.4860 H            1 SAH1501   0.0000
@<TRIPOS>BOND
     1    1    2       1
     2    2    3       1
     3    2    6       1
     4    3    4       1
     5    4    5       1
     6    5    9       1
     7    6    7      ar
     8    6    8      ar
     9    9   10       1
    10   10   11       1
    11   10   12       1
    12   11   16       1
    13   12   13       1
    14   12   14       1
    15   14   15       1
    16   14   16       1
    17   16   17       1
    18   17   18       1
    19   17   26       1
    20   18   19       2
    21   19   20       1
    22   20   21      ar
    23   20   26      ar
    24   21   22       1
    25   21   23      ar
    26   23   24      ar
    27   24   25      ar
    28   25   26      ar
    29    1   27       1
    30    1   28       1
    31    2   29       1
    32    3   30       1
    33    3   31       1
    34    4   32       1
    35    4   33       1
    36    1   46       1
    37    9   34       1
    38    9   35       1
    39   10   36       1
    40   12   37       1
    41   13   38       1
    42   14   39       1
    43   15   40       1
    44   16   41       1
    45   18   42       1
    46   22   43       1
    47   22   44       1
    48   24   45       1
@<TRIPOS>SUBSTRUCTURE
     1 SAH1501     1 GROUP             4 A     SAH     0 **** SAH A1501
