@<TRIPOS>MOLECULE
4nhk_PD2_1_ligand
   15    15     1     0     0
SMALL
NO_CHARGES


@<TRIPOS>ATOM
     1 O42        340.4130    36.7360   154.8540 O.co2        1 PD2702   0.0000
     2 C41        339.6180    37.5800   155.3440 C.2          1 PD2702   0.0000
     3 O41        340.0350    38.7300   155.6310 O.co2        1 PD2702  -1.0000
     4 C4         338.1680    37.2270   155.6490 C.ar         1 PD2702   0.0000
     5 C5         337.3010    38.1880   156.1280 C.ar         1 PD2702   0.0000
     6 C6         335.9810    37.8480   156.4180 C.ar         1 PD2702   0.0000
     7 C3         337.7280    35.9420   155.5150 C.ar         1 PD2702   0.0000
     8 C2         336.3980    35.6320   155.8030 C.ar         1 PD2702   0.0000
     9 N1         335.5420    36.5680   156.2630 N.ar         1 PD2702   0.0000
    10 C21        335.8970    34.2260   155.6930 C.2          1 PD2702   0.0000
    11 O21        336.5960    33.3510   155.1230 O.co2        1 PD2702   0.0000
    12 O22        334.8230    33.9480   156.2730 O.co2        1 PD2702  -1.0000
    13 H1         337.6191    39.1259   156.2666 H            1 PD2702   0.0000
    14 H2         335.3492    38.5515   156.7435 H            1 PD2702   0.0000
    15 H3         338.3561    35.2254   155.2117 H            1 PD2702   0.0000
@<TRIPOS>BOND
     1    1    2      ar
     2    2    3      ar
     3    2    4       1
     4    4    5      ar
     5    4    7      ar
     6    5    6      ar
     7    6    9      ar
     8    7    8      ar
     9    8    9      ar
    10    8   10       1
    11   10   11      ar
    12   10   12      ar
    13    7   15       1
    14    5   13       1
    15    6   14       1
@<TRIPOS>SUBSTRUCTURE
     1 PD2702      1 GROUP             4 A     PD2     0 **** PD2 A 702
