@<TRIPOS>MOLECULE
3h86_AP5_3_ligand
   82    87     1     0     0
SMALL
NO_CHARGES


@<TRIPOS>ATOM
     1 PA          12.0430   -19.6430   -33.2800 P.3          1 AP5193   0.0000
     2 O1A         13.3490   -20.2460   -33.6120 O.co2        1 AP5193   0.0000
     3 O2A         12.0360   -18.3770   -32.4650 O.co2        1 AP5193  -1.0000
     4 O3A         11.2410   -19.1730   -34.5700 O.3          1 AP5193   0.0000
     5 PB          11.4500   -19.7460   -36.0330 P.3          1 AP5193   0.0000
     6 O1B         10.0530   -19.8680   -36.4790 O.co2        1 AP5193   0.0000
     7 O2B         12.1570   -21.0830   -35.9640 O.co2        1 AP5193  -1.0000
     8 O3B         12.4930   -18.7080   -36.7350 O.3          1 AP5193   0.0000
     9 PG          13.4630   -19.2150   -37.9400 P.3          1 AP5193   0.0000
    10 O1G         12.5830   -20.2500   -38.6240 O.co2        1 AP5193   0.0000
    11 O2G         14.7400   -19.9290   -37.6420 O.co2        1 AP5193  -1.0000
    12 O3G         13.7180   -17.9470   -38.8910 O.3          1 AP5193   0.0000
    13 PD          15.0680   -17.0840   -39.0260 P.3          1 AP5193   0.0000
    14 O1D         15.2330   -16.2340   -37.8030 O.co2        1 AP5193   0.0000
    15 O2D         14.9740   -16.1370   -40.1810 O.co2        1 AP5193  -1.0000
    16 O3D         16.0960   -18.2690   -39.1280 O.3          1 AP5193   0.0000
    17 PE          17.3560   -18.3130   -40.0520 P.3          1 AP5193   0.0000
    18 O1E         18.1810   -19.5310   -39.7770 O.co2        1 AP5193   0.0000
    19 O2E         18.1800   -17.1010   -39.7260 O.co2        1 AP5193  -1.0000
    20 O5F         11.0200   -20.6780   -32.6160 O.3          1 AP5193   0.0000
    21 C5F          9.7060   -20.5200   -33.0750 C.3          1 AP5193   0.0000
    22 C4F          8.7470   -21.0730   -32.0800 C.3          1 AP5193   0.0000
    23 O4F          9.0720   -20.4540   -30.8780 O.3          1 AP5193   0.0000
    24 C3F          7.3520   -20.6550   -32.5060 C.3          1 AP5193   0.0000
    25 O3F          6.5550   -21.7990   -32.7770 O.3          1 AP5193   0.0000
    26 C2F          6.8640   -19.8400   -31.3190 C.3          1 AP5193   0.0000
    27 O2F          5.7930   -20.4690   -30.6750 O.3          1 AP5193   0.0000
    28 C1F          7.9700   -19.8090   -30.2980 C.3          1 AP5193   0.0000
    29 N9A          8.2640   -18.4130   -29.8690 N.pl3        1 AP5193   0.0000
    30 C8A          9.3830   -17.6940   -30.0910 C.2          1 AP5193   0.0000
    31 N7A          9.2780   -16.4640   -29.5090 N.2          1 AP5193   0.0000
    32 C5A          8.0740   -16.4270   -28.9110 C.ar         1 AP5193   0.0000
    33 C6A          7.4630   -15.4390   -28.1950 C.ar         1 AP5193   0.0000
    34 N6A          8.1090   -14.2680   -28.0080 N.pl3        1 AP5193   0.0000
    35 N1A          6.1940   -15.6560   -27.7300 N.ar         1 AP5193   0.0000
    36 C2A          5.5480   -16.8340   -27.9440 C.ar         1 AP5193   0.0000
    37 N3A          6.2040   -17.8490   -28.6100 N.ar         1 AP5193   0.0000
    38 C4A          7.4350   -17.6280   -29.1160 C.ar         1 AP5193   0.0000
    39 O5J         16.6830   -18.5120   -41.5570 O.3          1 AP5193   0.0000
    40 C5J         17.2760   -19.0680   -42.7610 C.3          1 AP5193   0.0000
    41 C4J         18.0550   -17.8740   -43.3020 C.3          1 AP5193   0.0000
    42 O4J         18.7820   -17.8850   -44.5120 O.3          1 AP5193   0.0000
    43 C3J         17.2120   -16.6300   -43.5110 C.3          1 AP5193   0.0000
    44 O3J         16.5910   -16.2850   -42.2780 O.3          1 AP5193   0.0000
    45 C2J         18.2380   -15.6660   -44.2270 C.3          1 AP5193   0.0000
    46 O2J         18.9260   -14.5730   -43.6180 O.3          1 AP5193   0.0000
    47 C1J         19.3450   -16.5840   -44.5400 C.3          1 AP5193   0.0000
    48 N9B         19.5360   -16.0790   -45.8370 N.pl3        1 AP5193   0.0000
    49 C8B         19.5490   -16.8400   -46.9980 C.2          1 AP5193   0.0000
    50 N7B         19.7800   -15.9860   -48.0260 N.2          1 AP5193   0.0000
    51 C5B         19.9030   -14.7510   -47.5480 C.ar         1 AP5193   0.0000
    52 C6B         20.1620   -13.6070   -48.2230 C.ar         1 AP5193   0.0000
    53 N6B         20.8330   -13.7790   -49.4020 N.pl3        1 AP5193   0.0000
    54 N1B         20.2480   -12.4140   -47.4980 N.ar         1 AP5193   0.0000
    55 C2B         20.1110   -12.4650   -46.1430 C.ar         1 AP5193   0.0000
    56 N3B         19.8740   -13.6680   -45.4430 N.ar         1 AP5193   1.0000
    57 C4B         19.7510   -14.7740   -46.1720 C.ar         1 AP5193   0.0000
    58 H5F1         9.5983   -21.0047   -33.9430 H            1 AP5193   0.0000
    59 H5F2         9.5177   -19.5473   -33.2107 H            1 AP5193   0.0000
    60 H4F          8.8251   -22.0676   -32.0113 H            1 AP5193   0.0000
    61 H3F          7.4035   -20.0753   -33.3192 H            1 AP5193   0.0000
    62 H5           6.0877   -22.0855   -31.9406 H            1 AP5193   0.0000
    63 H2F          6.6148   -18.9138   -31.6018 H            1 AP5193   0.0000
    64 H7           5.4950   -19.9105   -29.9009 H            1 AP5193   0.0000
    65 H1F          7.6792   -20.3334   -29.4977 H            1 AP5193   0.0000
    66 H8A         10.1761   -18.0159   -30.6080 H            1 AP5193   0.0000
    67 H6A1         7.6738   -13.5348   -27.4855 H            1 AP5193   0.0000
    68 H6A2         9.0225   -14.1340   -28.3921 H            1 AP5193   0.0000
    69 H2A          4.6098   -16.9627   -27.6228 H            1 AP5193   0.0000
    70 H5J1        16.5747   -19.3688   -43.4073 H            1 AP5193   0.0000
    71 H5J2        17.8834   -19.8333   -42.5482 H            1 AP5193   0.0000
    72 H4J         18.7164   -17.6369   -42.5905 H            1 AP5193   0.0000
    73 H3J         16.4909   -16.8536   -44.1667 H            1 AP5193   0.0000
    74 H17         16.4332   -17.1136   -41.7409 H            1 AP5193   0.0000
    75 H2J         17.8333   -15.3499   -45.0851 H            1 AP5193   0.0000
    76 H19         19.4855   -14.9113   -42.8613 H            1 AP5193   0.0000
    77 H1J         20.1402   -16.4755   -43.9435 H            1 AP5193   0.0000
    78 H8B         19.4139   -17.8286   -47.0638 H            1 AP5193   0.0000
    79 H6B1        21.0654   -12.9861   -49.9653 H            1 AP5193   0.0000
    80 H6B2        21.0913   -14.6977   -49.7009 H            1 AP5193   0.0000
    81 H2B         20.1813   -11.6141   -45.6224 H            1 AP5193   0.0000
    82 H3B         19.8020   -13.6878   -44.4458 H            1 AP5193   0.0000
@<TRIPOS>BOND
     1    1    2      ar
     2    1    3      ar
     3    1    4       1
     4    1   20       1
     5    4    5       1
     6    5    6      ar
     7    5    7      ar
     8    5    8       1
     9    8    9       1
    10    9   10      ar
    11    9   11      ar
    12    9   12       1
    13   12   13       1
    14   13   14      ar
    15   13   15      ar
    16   13   16       1
    17   16   17       1
    18   17   18      ar
    19   17   19      ar
    20   17   39       1
    21   20   21       1
    22   21   22       1
    23   22   23       1
    24   22   24       1
    25   23   28       1
    26   24   25       1
    27   24   26       1
    28   26   27       1
    29   26   28       1
    30   28   29       1
    31   29   30       1
    32   29   38       1
    33   30   31       2
    34   31   32       1
    35   32   33      ar
    36   32   38      ar
    37   33   34       1
    38   33   35      ar
    39   35   36      ar
    40   36   37      ar
    41   37   38      ar
    42   39   40       1
    43   40   41       1
    44   41   42       1
    45   41   43       1
    46   42   47       1
    47   43   44       1
    48   43   45       1
    49   45   46       1
    50   45   47       1
    51   47   48       1
    52   48   49       1
    53   48   57       1
    54   49   50       2
    55   50   51       1
    56   51   52      ar
    57   51   57      ar
    58   52   53       1
    59   52   54      ar
    60   54   55      ar
    61   55   56      ar
    62   56   57      ar
    63   55   81       1
    64   53   80       1
    65   53   79       1
    66   49   78       1
    67   47   77       1
    68   21   58       1
    69   21   59       1
    70   22   60       1
    71   24   61       1
    72   25   62       1
    73   26   63       1
    74   27   64       1
    75   28   65       1
    76   30   66       1
    77   34   67       1
    78   34   68       1
    79   36   69       1
    80   40   70       1
    81   40   71       1
    82   41   72       1
    83   43   73       1
    84   44   74       1
    85   45   75       1
    86   46   76       1
    87   56   82       1
@<TRIPOS>SUBSTRUCTURE
     1 AP5193      1 GROUP             4 G     AP5     0 **** AP5 G 193
