@<TRIPOS>MOLECULE
4omr_BAM_1_ligand
   18    18     1     0     0
SMALL
NO_CHARGES


@<TRIPOS>ATOM
     1 C1          38.0550    22.8370    57.1850 C.ar         1 BAM302   0.0000
     2 C2          38.1000    23.8940    58.0680 C.ar         1 BAM302   0.0000
     3 C3          36.9420    24.6500    58.2980 C.ar         1 BAM302   0.0000
     4 C4          35.7430    24.3420    57.6420 C.ar         1 BAM302   0.0000
     5 C5          35.7160    23.2660    56.7580 C.ar         1 BAM302   0.0000
     6 C6          36.8720    22.5130    56.5310 C.ar         1 BAM302   0.0000
     7 C           39.2850    22.0440    56.9470 C.cat        1 BAM302   0.0000
     8 N1          40.1860    22.5260    56.1000 N.pl3        1 BAM302   1.0000
     9 N2          39.4390    20.8790    57.5770 N.pl3        1 BAM302   0.0000
    10 H1          38.9517    24.1199    58.5408 H            1 BAM302   0.0000
    11 H2          36.9722    25.4180    58.9377 H            1 BAM302   0.0000
    12 H3          34.9200    24.8858    57.8058 H            1 BAM302   0.0000
    13 H4          34.8672    23.0313    56.2842 H            1 BAM302   0.0000
    14 H5          36.8477    21.7400    55.8971 H            1 BAM302   0.0000
    15 H6          41.0258    22.0143    55.9187 H            1 BAM302   0.0000
    16 H7          40.0250    23.4009    55.6432 H            1 BAM302   0.0000
    17 H8          40.2636    20.3339    57.4257 H            1 BAM302   0.0000
    18 H9          38.7299    20.5503    58.2008 H            1 BAM302   0.0000
@<TRIPOS>BOND
     1    1    2      ar
     2    1    6      ar
     3    1    7       1
     4    2    3      ar
     5    3    4      ar
     6    4    5      ar
     7    5    6      ar
     8    7    8      ar
     9    7    9      ar
    10    2   10       1
    11    3   11       1
    12    4   12       1
    13    5   13       1
    14    6   14       1
    15    8   15       1
    16    8   16       1
    17    9   17       1
    18    9   18       1
@<TRIPOS>SUBSTRUCTURE
     1 BAM302      1 GROUP             4 A     BAM     0 **** BAM A 302
