@<TRIPOS>MOLECULE
2hfu_MEV_1_ligand
   21    20     1     0     0
SMALL
NO_CHARGES


@<TRIPOS>ATOM
     1 C8          15.6200    -6.9730    13.1800 C.3          1 MEV400   0.0000
     2 O8          15.5530    -6.0680    12.0720 O.3          1 MEV400   0.0000
     3 C2          14.2960    -6.9500    13.9430 C.3          1 MEV400   0.0000
     4 C3          14.0770    -8.1390    14.8890 C.3          1 MEV400   0.0000
     5 O7          12.8880    -7.8900    15.6450 O.3          1 MEV400   0.0000
     6 C4          13.9290    -9.4760    14.1480 C.3          1 MEV400   0.0000
     7 C5          12.6270    -9.6450    13.3850 C.2          1 MEV400   0.0000
     8 O3          12.5450   -10.5960    12.5800 O.co2        1 MEV400   0.0000
     9 O4          11.6740    -8.8550    13.5670 O.co2        1 MEV400  -1.0000
    10 C6          15.2230    -8.2430    15.8900 C.3          1 MEV400   0.0000
    11 H1          16.3611    -6.6959    13.7915 H            1 MEV400   0.0000
    12 H2          15.7939    -7.8985    12.8435 H            1 MEV400   0.0000
    13 H3          14.8123    -6.3448    11.4598 H            1 MEV400   0.0000
    14 H4          13.5520    -6.9430    13.2748 H            1 MEV400   0.0000
    15 H5          14.2644    -6.1107    14.4858 H            1 MEV400   0.0000
    16 H6          12.0989    -8.2650    15.1584 H            1 MEV400   0.0000
    17 H7          13.9921   -10.2127    14.8213 H            1 MEV400   0.0000
    18 H8          14.6832    -9.5547    13.4961 H            1 MEV400   0.0000
    19 H9          15.0651    -9.0213    16.4978 H            1 MEV400   0.0000
    20 H10         16.0841    -8.3732    15.3985 H            1 MEV400   0.0000
    21 H11         15.2712    -7.4027    16.4300 H            1 MEV400   0.0000
@<TRIPOS>BOND
     1    1    2       1
     2    1    3       1
     3    3    4       1
     4    4    5       1
     5    4    6       1
     6    4   10       1
     7    6    7       1
     8    7    8      ar
     9    7    9      ar
    10    1   11       1
    11    1   12       1
    12    2   13       1
    13    3   14       1
    14    3   15       1
    15    5   16       1
    16    6   17       1
    17    6   18       1
    18   10   21       1
    19   10   19       1
    20   10   20       1
@<TRIPOS>SUBSTRUCTURE
     1 MEV400      1 GROUP             4 A     MEV     0 **** MEV A 400
