@<TRIPOS>MOLECULE
1l3i_SAH_3_ligand
   46    48     1     0     0
SMALL
NO_CHARGES


@<TRIPOS>ATOM
     1 N          -37.6820     9.2950    59.2350 N.4          1 SAH803   1.0000
     2 CA         -38.2370     9.6130    60.5470 C.3          1 SAH803   0.0000
     3 CB         -37.3720     8.9740    61.6320 C.3          1 SAH803   0.0000
     4 CG         -37.3240     7.4370    61.5240 C.3          1 SAH803   0.0000
     5 SD         -36.5600     6.6290    62.9360 S.3          1 SAH803   0.0000
     6 C          -38.3050    11.1390    60.7330 C.2          1 SAH803   0.0000
     7 O          -37.9300    11.8480    59.8040 O.co2        1 SAH803   0.0000
     8 OXT        -38.7570    11.6120    61.7900 O.co2        1 SAH803  -1.0000
     9 C5'        -36.7610     4.9160    62.4600 C.3          1 SAH803   0.0000
    10 C4'        -38.0610     4.3180    62.9220 C.3          1 SAH803   0.0000
    11 O4'        -38.0400     2.9830    62.4430 O.3          1 SAH803   0.0000
    12 C3'        -38.3250     4.2020    64.5270 C.3          1 SAH803   0.0000
    13 O3'        -39.4350     4.9770    65.1080 O.3          1 SAH803   0.0000
    14 C2'        -38.4760     2.6810    64.6490 C.3          1 SAH803   0.0000
    15 O2'        -39.2870     2.1710    65.7180 O.3          1 SAH803   0.0000
    16 C1'        -38.9620     2.3270    63.2700 C.3          1 SAH803   0.0000
    17 N9         -38.8350     0.9590    62.7980 N.pl3        1 SAH803   0.0000
    18 C8         -37.6260     0.2580    62.5590 C.2          1 SAH803   0.0000
    19 N7         -37.8670    -0.9440    62.1280 N.2          1 SAH803   0.0000
    20 C5         -39.2800    -1.0680    62.0730 C.ar         1 SAH803   0.0000
    21 C6         -40.1620    -2.1190    61.6870 C.ar         1 SAH803   0.0000
    22 N6         -39.7170    -3.2960    61.2520 N.pl3        1 SAH803   0.0000
    23 N1         -41.5020    -1.9290    61.7450 N.ar         1 SAH803   0.0000
    24 C2         -41.9330    -0.7370    62.1750 C.ar         1 SAH803   0.0000
    25 N3         -41.2360     0.3160    62.5620 N.ar         1 SAH803   0.0000
    26 C4         -39.8900     0.0960    62.4900 C.ar         1 SAH803   0.0000
    27 H1         -38.3607     8.7933    58.6987 H            1 SAH803   0.0000
    28 H2         -37.4419    10.1419    58.7605 H            1 SAH803   0.0000
    29 HA         -39.1620     9.2377    60.6072 H            1 SAH803   0.0000
    30 HB1        -37.7459     9.2206    62.5261 H            1 SAH803   0.0000
    31 HB2        -36.4411     9.3299    61.5503 H            1 SAH803   0.0000
    32 HG1        -36.8046     7.1954    60.7043 H            1 SAH803   0.0000
    33 HG2        -38.2609     7.0984    61.4368 H            1 SAH803   0.0000
    34 H5'1       -36.0102     4.3867    62.8551 H            1 SAH803   0.0000
    35 H5'2       -36.7215     4.8572    61.4625 H            1 SAH803   0.0000
    36 H4'        -38.8207     4.8099    62.4967 H            1 SAH803   0.0000
    37 H3'        -37.4837     4.4673    64.9980 H            1 SAH803   0.0000
    38 H12        -40.2958     4.6955    64.6841 H            1 SAH803   0.0000
    39 H2'        -37.5598     2.2944    64.7545 H            1 SAH803   0.0000
    40 H14        -40.2330     2.0828    65.4059 H            1 SAH803   0.0000
    41 H1'        -39.8878     2.6730    63.1177 H            1 SAH803   0.0000
    42 H16        -36.7119     0.6371    62.7026 H            1 SAH803   0.0000
    43 H17        -40.3661    -4.0101    60.9898 H            1 SAH803   0.0000
    44 H18        -38.7337    -3.4659    61.1874 H            1 SAH803   0.0000
    45 H19        -42.9265    -0.6279    62.2080 H            1 SAH803   0.0000
    46 H20        -36.8632     8.7320    59.3470 H            1 SAH803   0.0000
@<TRIPOS>BOND
     1    1    2       1
     2    2    3       1
     3    2    6       1
     4    3    4       1
     5    4    5       1
     6    5    9       1
     7    6    7      ar
     8    6    8      ar
     9    9   10       1
    10   10   11       1
    11   10   12       1
    12   11   16       1
    13   12   13       1
    14   12   14       1
    15   14   15       1
    16   14   16       1
    17   16   17       1
    18   17   18       1
    19   17   26       1
    20   18   19       2
    21   19   20       1
    22   20   21      ar
    23   20   26      ar
    24   21   22       1
    25   21   23      ar
    26   23   24      ar
    27   24   25      ar
    28   25   26      ar
    29    1   27       1
    30    1   28       1
    31    2   29       1
    32    3   30       1
    33    3   31       1
    34    4   32       1
    35    4   33       1
    36    1   46       1
    37    9   34       1
    38    9   35       1
    39   10   36       1
    40   12   37       1
    41   13   38       1
    42   14   39       1
    43   15   40       1
    44   16   41       1
    45   18   42       1
    46   22   43       1
    47   22   44       1
    48   24   45       1
@<TRIPOS>SUBSTRUCTURE
     1 SAH803      1 GROUP             4 C     SAH     0 **** SAH C 803
