@<TRIPOS>MOLECULE
4ep6_IMD_1_ligand
    9     9     1     0     0
SMALL
NO_CHARGES


@<TRIPOS>ATOM
     1 N1           4.9900    19.9870     5.8700 N.2          1 IMD602   0.0000
     2 C2           4.4340    19.5360     4.7460 C.2          1 IMD602   0.0000
     3 N3           4.1540    18.2540     4.9490 N.pl3        1 IMD602   0.0000
     4 C4           4.5560    17.8930     6.1860 C.2          1 IMD602   0.0000
     5 C5           5.1100    18.9800     6.7650 C.2          1 IMD602   0.0000
     6 H1           4.2613    20.0607     3.9124 H            1 IMD602   0.0000
     7 H2           4.4610    16.9868     6.5981 H            1 IMD602   0.0000
     8 H3           5.5256    19.0303     7.6732 H            1 IMD602   0.0000
     9 H4           3.7127    17.6485     4.2867 H            1 IMD602   0.0000
@<TRIPOS>BOND
     1    1    2       2
     2    1    5       1
     3    2    3       1
     4    3    4       1
     5    4    5       2
     6    5    8       1
     7    2    6       1
     8    4    7       1
     9    3    9       1
@<TRIPOS>SUBSTRUCTURE
     1 IMD602      1 GROUP             4 A     IMD     0 **** IMD A 602
