@<TRIPOS>MOLECULE
2ocf_EST_1_ligand
   44    47     1     0     0
SMALL
NO_CHARGES


@<TRIPOS>ATOM
     1 C1          47.8780   -16.7410     5.1230 C.ar         1 EST596   0.0000
     2 C2          49.0010   -17.3110     5.7220 C.ar         1 EST596   0.0000
     3 C3          50.2830   -16.9000     5.3620 C.ar         1 EST596   0.0000
     4 O3          51.3740   -17.4460     5.9550 O.3          1 EST596   0.0000
     5 C4          50.4720   -15.9230     4.4000 C.ar         1 EST596   0.0000
     6 C5          49.3880   -15.3390     3.7700 C.ar         1 EST596   0.0000
     7 C6          49.6420   -14.2950     2.7190 C.3          1 EST596   0.0000
     8 C7          48.3920   -14.0400     1.9100 C.3          1 EST596   0.0000
     9 C8          47.2010   -13.8290     2.8240 C.3          1 EST596   0.0000
    10 C9          46.8440   -15.1500     3.4880 C.3          1 EST596   0.0000
    11 C10         48.0240   -15.7500     4.1570 C.ar         1 EST596   0.0000
    12 C11         45.6330   -15.0190     4.4150 C.3          1 EST596   0.0000
    13 C12         44.4230   -14.5040     3.6340 C.3          1 EST596   0.0000
    14 C13         44.7720   -13.2110     2.9110 C.3          1 EST596   0.0000
    15 C14         45.9680   -13.4700     2.0150 C.3          1 EST596   0.0000
    16 C15         46.0370   -12.3110     1.0230 C.3          1 EST596   0.0000
    17 C16         44.5970   -11.8100     0.9440 C.3          1 EST596   0.0000
    18 C17         43.7700   -12.6920     1.8820 C.3          1 EST596   0.0000
    19 O17         42.7040   -11.9330     2.4470 O.3          1 EST596   0.0000
    20 C18         45.0650   -12.1580     3.9770 C.3          1 EST596   0.0000
    21 H1          46.9635   -17.0459     5.3889 H            1 EST596   0.0000
    22 H2          48.8852   -18.0213     6.4163 H            1 EST596   0.0000
    23 H3          51.2621   -18.1496     6.6568 H            1 EST596   0.0000
    24 H4          51.3994   -15.6372     4.1586 H            1 EST596   0.0000
    25 H5          50.3688   -14.6120     2.1097 H            1 EST596   0.0000
    26 H6          49.9258   -13.4447     3.1622 H            1 EST596   0.0000
    27 H7          48.2171   -14.8267     1.3180 H            1 EST596   0.0000
    28 H8          48.5245   -13.2232     1.3484 H            1 EST596   0.0000
    29 H9          47.3961   -13.1265     3.5084 H            1 EST596   0.0000
    30 H10         46.5789   -15.7773     2.7558 H            1 EST596   0.0000
    31 H11         45.8484   -14.3774     5.1511 H            1 EST596   0.0000
    32 H12         45.4175   -15.9141     4.8054 H            1 EST596   0.0000
    33 H13         43.6689   -14.3340     4.2684 H            1 EST596   0.0000
    34 H14         44.1458   -15.1923     2.9636 H            1 EST596   0.0000
    35 H15         45.7419   -14.2825     1.4777 H            1 EST596   0.0000
    36 H16         46.3536   -12.6266     0.1285 H            1 EST596   0.0000
    37 H17         46.6461   -11.5920     1.3576 H            1 EST596   0.0000
    38 H18         44.2559   -11.8890     0.0073 H            1 EST596   0.0000
    39 H19         44.5481   -10.8552     1.2371 H            1 EST596   0.0000
    40 H20         43.3931   -13.4622     1.3675 H            1 EST596   0.0000
    41 H21         42.0902   -11.6272     1.7191 H            1 EST596   0.0000
    42 H22         45.2989   -11.2921     3.5348 H            1 EST596   0.0000
    43 H23         44.2563   -12.0311     4.5514 H            1 EST596   0.0000
    44 H24         45.8317   -12.4610     4.5430 H            1 EST596   0.0000
@<TRIPOS>BOND
     1    1    2      ar
     2    1   11      ar
     3    2    3      ar
     4    3    4       1
     5    3    5      ar
     6    5    6      ar
     7    6    7       1
     8    6   11      ar
     9    7    8       1
    10    8    9       1
    11    9   10       1
    12    9   15       1
    13   10   11       1
    14   10   12       1
    15   12   13       1
    16   13   14       1
    17   14   15       1
    18   14   18       1
    19   14   20       1
    20   15   16       1
    21   16   17       1
    22   17   18       1
    23   18   19       1
    24    1   21       1
    25    2   22       1
    26    4   23       1
    27    5   24       1
    28    7   25       1
    29    7   26       1
    30    8   27       1
    31    8   28       1
    32    9   29       1
    33   10   30       1
    34   12   31       1
    35   12   32       1
    36   13   33       1
    37   13   34       1
    38   15   35       1
    39   16   36       1
    40   16   37       1
    41   17   38       1
    42   17   39       1
    43   18   40       1
    44   19   41       1
    45   20   42       1
    46   20   43       1
    47   20   44       1
@<TRIPOS>SUBSTRUCTURE
     1 EST596      1 GROUP             4 A     EST     0 **** EST A 596
