@<TRIPOS>MOLECULE
4io8_3FD_1_ligand
   61    65     1     0     0
SMALL
NO_CHARGES


@<TRIPOS>ATOM
     1 C18          0.7100     7.5010    11.4630 C.ar         1 3FD401   0.0000
     2 C17         -0.1580     7.2680    10.3940 C.ar         1 3FD401   0.0000
     3 C16         -0.7090     5.9910    10.2390 C.ar         1 3FD401   0.0000
     4 CL20        -1.7750     5.6230     8.9160 Cl           1 3FD401   0.0000
     5 C15         -0.4180     4.9900    11.1600 C.ar         1 3FD401   0.0000
     6 C14          0.4310     5.2260    12.2120 C.ar         1 3FD401   0.0000
     7 C13          0.9960     6.4790    12.3630 C.ar         1 3FD401   0.0000
     8 C12          1.9010     6.6990    13.5360 C.3          1 3FD401   0.0000
     9 N11          1.7440     5.6120    14.5160 N.pl3        1 3FD401   0.0000
    10 C6           0.9630     5.7780    15.6440 C.2          1 3FD401   0.0000
    11 N7           0.1720     6.8040    15.8160 N.2          1 3FD401   0.0000
    12 C8          -0.4240     6.7120    17.0250 C.ar         1 3FD401   0.0000
    13 C4          -1.3620     7.5090    17.7090 C.ar         1 3FD401   0.0000
    14 N10         -1.8730     8.6530    17.0940 N.pl3        1 3FD401   0.0000
    15 N1          -1.7610     7.1080    18.9270 N.ar         1 3FD401   0.0000
    16 C2          -1.2640     6.0210    19.4970 C.ar         1 3FD401   0.0000
    17 N3          -0.4000     5.2370    18.8680 N.ar         1 3FD401   0.0000
    18 C9           0.0430     5.5380    17.6480 C.ar         1 3FD401   0.0000
    19 N5           0.9100     4.9500    16.7540 N.pl3        1 3FD401   0.0000
    20 C21          1.5940     3.6600    16.9860 C.3          1 3FD401   0.0000
    21 O22          3.0200     3.6820    16.7060 O.3          1 3FD401   0.0000
    22 C24          1.0810     2.5500    16.0250 C.3          1 3FD401   0.0000
    23 O26         -0.2160     2.0540    16.3750 O.3          1 3FD401   0.0000
    24 C25          2.1910     1.4870    16.2120 C.3          1 3FD401   0.0000
    25 O27          1.9080     0.6850    17.3620 O.3          1 3FD401   0.0000
    26 C23          3.4520     2.3390    16.4340 C.3          1 3FD401   0.0000
    27 C28          4.3640     2.3310    15.2030 C.3          1 3FD401   0.0000
    28 O29          3.7530     2.9380    14.0540 O.3          1 3FD401   0.0000
    29 C30          4.6730     3.3520    13.0270 C.3          1 3FD401   0.0000
    30 C31          3.9280     3.7460    11.7750 C.ar         1 3FD401   0.0000
    31 C32          4.1630     4.9850    11.1810 C.ar         1 3FD401   0.0000
    32 C33          3.4560     5.3580    10.0360 C.ar         1 3FD401   0.0000
    33 C34          2.5360     4.4540     9.4540 C.ar         1 3FD401   0.0000
    34 C37          1.8020     4.8210     8.2660 C.1          1 3FD401   0.0000
    35 N38          1.2280     5.1220     7.3250 N.1          1 3FD401   0.0000
    36 C35          2.3120     3.2010    10.0430 C.ar         1 3FD401   0.0000
    37 C36          2.9970     2.8700    11.2100 C.ar         1 3FD401   0.0000
    38 CL21        -1.0620     3.4010    11.0080 Cl           1 3FD401   0.0000
    39 H1           1.1261     8.4025    11.5817 H            1 3FD401   0.0000
    40 H2          -0.3817     8.0004     9.7510 H            1 3FD401   0.0000
    41 H3           0.6395     4.4974    12.8644 H            1 3FD401   0.0000
    42 H4           1.6716     7.5700    13.9704 H            1 3FD401   0.0000
    43 H5           2.8495     6.7236    13.2203 H            1 3FD401   0.0000
    44 H6           2.2095     4.7402    14.3633 H            1 3FD401   0.0000
    45 H7          -2.5394     9.2234    17.5741 H            1 3FD401   0.0000
    46 H8          -1.5727     8.9022    16.1733 H            1 3FD401   0.0000
    47 H9          -1.5480     5.7854    20.4264 H            1 3FD401   0.0000
    48 H10          1.4468     3.3726    17.9324 H            1 3FD401   0.0000
    49 H11          1.0792     2.8841    15.0825 H            1 3FD401   0.0000
    50 H12         -0.4893     1.3465    15.7233 H            1 3FD401   0.0000
    51 H13          2.2831     0.9189    15.3942 H            1 3FD401   0.0000
    52 H14          1.3565    -0.1038    17.0907 H            1 3FD401   0.0000
    53 H15          3.9560     1.9865    17.2225 H            1 3FD401   0.0000
    54 H16          4.5919     1.3831    14.9804 H            1 3FD401   0.0000
    55 H17          5.2010     2.8324    15.4222 H            1 3FD401   0.0000
    56 H18          5.2928     2.5960    12.8166 H            1 3FD401   0.0000
    57 H19          5.2015     4.1349    13.3552 H            1 3FD401   0.0000
    58 H20          4.8389     5.6076    11.5754 H            1 3FD401   0.0000
    59 H21          3.5993     6.2602     9.6291 H            1 3FD401   0.0000
    60 H22          1.6698     2.5545     9.6312 H            1 3FD401   0.0000
    61 H23          2.8195     1.9903    11.6511 H            1 3FD401   0.0000
@<TRIPOS>BOND
     1    1    2      ar
     2    1    7      ar
     3    2    3      ar
     4    3    4       1
     5    3    5      ar
     6    5    6      ar
     7    5   38       1
     8    6    7      ar
     9    7    8       1
    10    8    9       1
    11    9   10       1
    12   10   11       2
    13   10   19       1
    14   11   12       1
    15   12   13      ar
    16   12   18      ar
    17   13   14       1
    18   13   15      ar
    19   15   16      ar
    20   16   17      ar
    21   17   18      ar
    22   18   19       1
    23   19   20       1
    24   20   21       1
    25   20   22       1
    26   21   26       1
    27   22   23       1
    28   22   24       1
    29   24   25       1
    30   24   26       1
    31   26   27       1
    32   27   28       1
    33   28   29       1
    34   29   30       1
    35   30   31      ar
    36   30   37      ar
    37   31   32      ar
    38   32   33      ar
    39   33   34       1
    40   33   36      ar
    41   34   35       3
    42   36   37      ar
    43    1   39       1
    44    2   40       1
    45    6   41       1
    46    8   42       1
    47    8   43       1
    48    9   44       1
    49   14   45       1
    50   14   46       1
    51   16   47       1
    52   20   48       1
    53   22   49       1
    54   23   50       1
    55   24   51       1
    56   25   52       1
    57   26   53       1
    58   27   54       1
    59   27   55       1
    60   29   56       1
    61   29   57       1
    62   31   58       1
    63   32   59       1
    64   36   60       1
    65   37   61       1
@<TRIPOS>SUBSTRUCTURE
     1 3FD401      1 GROUP             4 A     3FD     0 **** 3FD A 401
