@<TRIPOS>MOLECULE
3h18_PMS_1_ligand
   17    17     1     0     0
SMALL
NO_CHARGES


@<TRIPOS>ATOM
     1 C          -14.5370    19.5380    -7.3650 C.3          1 PMS311   0.0000
     2 S          -13.1920    19.9570    -6.2990 S.o          1 PMS311   0.0000
     3 C1         -15.7820    18.7340    -7.1200 C.ar         1 PMS311   0.0000
     4 C2         -15.7540    17.4770    -6.5780 C.ar         1 PMS311   0.0000
     5 C3         -16.9610    16.7840    -6.4020 C.ar         1 PMS311   0.0000
     6 C4         -18.1390    17.3660    -6.8160 C.ar         1 PMS311   0.0000
     7 C5         -18.1240    18.6550    -7.4280 C.ar         1 PMS311   0.0000
     8 C6         -16.9570    19.3200    -7.5910 C.ar         1 PMS311   0.0000
     9 O2S        -13.6350    21.5550    -5.9140 O.co2        1 PMS311   0.0000
    10 O1S        -12.8660    19.0140    -4.9460 O.co2        1 PMS311  -1.0000
    11 H1         -14.0970    19.0684    -8.1304 H            1 PMS311   0.0000
    12 H2         -14.8826    20.4247    -7.6722 H            1 PMS311   0.0000
    13 H3         -14.8856    17.0589    -6.3114 H            1 PMS311   0.0000
    14 H4         -16.9662    15.8772    -5.9805 H            1 PMS311   0.0000
    15 H5         -19.0059    16.8844    -6.6874 H            1 PMS311   0.0000
    16 H6         -18.9800    19.0688    -7.7379 H            1 PMS311   0.0000
    17 H7         -16.9372    20.2133    -8.0400 H            1 PMS311   0.0000
@<TRIPOS>BOND
     1    1    2       1
     2    1    3       1
     3    2    9      ar
     4    2   10      ar
     5    3    4      ar
     6    3    8      ar
     7    4    5      ar
     8    5    6      ar
     9    6    7      ar
    10    7    8      ar
    11    1   11       1
    12    1   12       1
    13    4   13       1
    14    5   14       1
    15    6   15       1
    16    7   16       1
    17    8   17       1
@<TRIPOS>SUBSTRUCTURE
     1 PMS311      1 GROUP             4 A     PMS     0 **** PMS A 311
