@<TRIPOS>MOLECULE
2xfy_ACX_1_ligand
  126   132     1     0     0
SMALL
NO_CHARGES


@<TRIPOS>ATOM
     1 C1A         20.2740    -3.0150    22.8520 C.3          1 ACX600   0.0000
     2 C2A         21.7040    -2.5490    22.5390 C.3          1 ACX600   0.0000
     3 C3A         21.9060    -2.0450    21.0970 C.3          1 ACX600   0.0000
     4 C4A         20.8780    -2.4650    20.0250 C.3          1 ACX600   0.0000
     5 C5A         19.5500    -3.0200    20.5550 C.3          1 ACX600   0.0000
     6 C6A         18.8950    -3.9360    19.5170 C.3          1 ACX600   0.0000
     7 O1A         19.4020    -1.9110    23.1510 O.3          1 ACX600   0.0000
     8 O2A         22.1540    -1.5480    23.4810 O.3          1 ACX600   0.0000
     9 O3A         23.1780    -2.6010    20.7070 O.3          1 ACX600   0.0000
    10 O5A         19.7450    -3.7790    21.7590 O.3          1 ACX600   0.0000
    11 O6A         17.5350    -3.5370    19.2950 O.3          1 ACX600   0.0000
    12 C1B         17.0250    -0.2830    26.0380 C.3          1 ACX600   0.0000
    13 C2B         18.4210    -0.6170    26.5420 C.3          1 ACX600   0.0000
    14 C3B         19.3340    -1.0030    25.3810 C.3          1 ACX600   0.0000
    15 C4B         18.7020    -2.0100    24.4070 C.3          1 ACX600   0.0000
    16 C5B         17.2220    -1.7570    24.1320 C.3          1 ACX600   0.0000
    17 C6B         16.5980    -2.9940    23.4810 C.3          1 ACX600   0.0000
    18 O1B         17.1010     0.8170    25.1230 O.3          1 ACX600   0.0000
    19 O2B         18.9650     0.5000    27.2660 O.3          1 ACX600   0.0000
    20 O3B         20.5410    -1.5650    25.9130 O.3          1 ACX600   0.0000
    21 O5B         16.5050    -1.4220    25.3330 O.3          1 ACX600   0.0000
    22 O6B         15.7940    -2.5950    22.3620 O.3          1 ACX600   0.0000
    23 C1C         15.8800     4.7320    24.7140 C.3          1 ACX600   0.0000
    24 C2C         17.0710     4.5040    25.6500 C.3          1 ACX600   0.0000
    25 C3C         17.6500     3.1090    25.4480 C.3          1 ACX600   0.0000
    26 C4C         16.5490     2.0540    25.5380 C.3          1 ACX600   0.0000
    27 C5C         15.3910     2.3900    24.6030 C.3          1 ACX600   0.0000
    28 C6C         14.2740     1.3480    24.7150 C.3          1 ACX600   0.0000
    29 O1C         16.3480     4.6550    23.3540 O.3          1 ACX600   0.0000
    30 O2C         18.1390     5.4490    25.4260 O.3          1 ACX600   0.0000
    31 O3C         18.6740     2.8530    26.4230 O.3          1 ACX600   0.0000
    32 O5C         14.8990     3.7030    24.9330 O.3          1 ACX600   0.0000
    33 O6C         13.9110     1.2320    26.0890 O.3          1 ACX600   0.0000
    34 C1D         15.9320     6.0690    19.5270 C.3          1 ACX600   0.0000
    35 C2D         16.7350     6.9510    20.4600 C.3          1 ACX600   0.0000
    36 C3D         17.0760     6.2220    21.7660 C.3          1 ACX600   0.0000
    37 C4D         15.8420     5.5770    22.3890 C.3          1 ACX600   0.0000
    38 C5D         14.9790     4.8100    21.3650 C.3          1 ACX600   0.0000
    39 C6D         13.6070     4.4050    21.9100 C.3          1 ACX600   0.0000
    40 O1D         16.7870     4.9550    19.2890 O.3          1 ACX600   0.0000
    41 O2D         18.0020     7.2830    19.8360 O.3          1 ACX600   0.0000
    42 O3D         17.7250     7.1660    22.6650 O.3          1 ACX600   0.0000
    43 O5D         14.7520     5.5580    20.1480 O.3          1 ACX600   0.0000
    44 O6D         12.8720     5.5500    22.3740 O.3          1 ACX600   0.0000
    45 C1E         18.2400     2.7060    16.1800 C.3          1 ACX600   0.0000
    46 C2E         18.8040     4.1260    16.2740 C.3          1 ACX600   0.0000
    47 C3E         18.5160     4.7560    17.6420 C.3          1 ACX600   0.0000
    48 C4E         16.9940     4.6350    17.9250 C.3          1 ACX600   0.0000
    49 C5E         16.4440     3.2010    17.7190 C.3          1 ACX600   0.0000
    50 C6E         14.9230     3.0120    17.8900 C.3          1 ACX600   0.0000
    51 O1E         18.8820     1.8470    17.1380 O.3          1 ACX600   0.0000
    52 O2E         20.2040     4.0140    16.0000 O.3          1 ACX600   0.0000
    53 O3E         19.0600     6.1130    17.7390 O.3          1 ACX600   0.0000
    54 O5E         16.8260     2.7330    16.4180 O.3          1 ACX600   0.0000
    55 O6E         14.6300     1.5960    17.7660 O.3          1 ACX600   0.0000
    56 C1F         20.8640    -1.6510    17.7410 C.3          1 ACX600   0.0000
    57 C2F         21.7640    -0.5390    17.2150 C.3          1 ACX600   0.0000
    58 C3F         20.9860     0.7670    17.2140 C.3          1 ACX600   0.0000
    59 C4F         19.5780     0.6900    16.6310 C.3          1 ACX600   0.0000
    60 C5F         18.8100    -0.5940    16.9810 C.3          1 ACX600   0.0000
    61 C6F         17.7210    -0.8580    15.9350 C.3          1 ACX600   0.0000
    62 O1F         20.5730    -1.3800    19.1210 O.3          1 ACX600   0.0000
    63 O2F         22.9330    -0.4160    18.0550 O.3          1 ACX600   0.0000
    64 O3F         21.6800     1.8030    16.5030 O.3          1 ACX600   0.0000
    65 O5F         19.6520    -1.7550    16.9850 O.3          1 ACX600   0.0000
    66 O6F         16.4660    -1.0560    16.5940 O.3          1 ACX600   0.0000
    67 H1A         20.3102    -3.6082    23.6562 H            1 ACX600   0.0000
    68 H2A         22.2996    -3.3440    22.6543 H            1 ACX600   0.0000
    69 H3A         21.9762    -1.0475    21.1076 H            1 ACX600   0.0000
    70 H4A         21.3017    -3.1892    19.4809 H            1 ACX600   0.0000
    71 H5A         18.9337    -2.2567    20.7489 H            1 ACX600   0.0000
    72 H6A1        18.9129    -4.8788    19.8499 H            1 ACX600   0.0000
    73 H6A2        19.4017    -3.8765    18.6569 H            1 ACX600   0.0000
    74 H8          22.9687    -1.8800    23.9564 H            1 ACX600   0.0000
    75 H9          23.1342    -3.5989    20.7543 H            1 ACX600   0.0000
    76 H6A         17.1662    -3.1304    20.1309 H            1 ACX600   0.0000
    77 H1B         16.4279    -0.0514    26.8060 H            1 ACX600   0.0000
    78 H2B         18.3546    -1.3962    27.1652 H            1 ACX600   0.0000
    79 H3B         19.5676    -0.1742    24.8725 H            1 ACX600   0.0000
    80 H4B         18.8140    -2.9340    24.7726 H            1 ACX600   0.0000
    81 H5B         17.1453    -0.9910    23.4938 H            1 ACX600   0.0000
    82 H6B1        16.0257    -3.4690    24.1495 H            1 ACX600   0.0000
    83 H6B2        17.3234    -3.6070    23.1679 H            1 ACX600   0.0000
    84 H18         19.5913     0.1672    27.9710 H            1 ACX600   0.0000
    85 H19         21.1484    -1.8223    25.1614 H            1 ACX600   0.0000
    86 H6B         15.0422    -3.2437    22.2436 H            1 ACX600   0.0000
    87 H1C         15.4769     5.6308    24.8864 H            1 ACX600   0.0000
    88 H2C         16.7584     4.5893    26.5960 H            1 ACX600   0.0000
    89 H3C         18.0600     3.0638    24.5370 H            1 ACX600   0.0000
    90 H4C         16.2192     1.9830    26.4794 H            1 ACX600   0.0000
    91 H5C         15.7292     2.3998    23.6620 H            1 ACX600   0.0000
    92 H6C1        14.5986     0.4655    24.3747 H            1 ACX600   0.0000
    93 H6C2        13.4823     1.6411    24.1790 H            1 ACX600   0.0000
    94 H28         18.4666     5.3649    24.4849 H            1 ACX600   0.0000
    95 H29         18.7051     1.8740    26.6245 H            1 ACX600   0.0000
    96 H6C         12.9455     1.4678    26.1998 H            1 ACX600   0.0000
    97 H1D         15.7148     6.5465    18.6756 H            1 ACX600   0.0000
    98 H2D         16.2250     7.7875    20.6604 H            1 ACX600   0.0000
    99 H3D         17.7307     5.4965    21.5537 H            1 ACX600   0.0000
   100 H4D         15.2883     6.2743    22.8442 H            1 ACX600   0.0000
   101 H5D         15.4686     3.9729    21.1208 H            1 ACX600   0.0000
   102 H6D1        13.7334     3.7685    22.6709 H            1 ACX600   0.0000
   103 H6D2        13.0869     3.9565    21.1831 H            1 ACX600   0.0000
   104 H38         18.0524     6.8530    18.9346 H            1 ACX600   0.0000
   105 H39         18.6415     6.8355    22.8904 H            1 ACX600   0.0000
   106 H6D         11.8921     5.3851    22.2615 H            1 ACX600   0.0000
   107 H1E         18.4079     2.3500    15.2607 H            1 ACX600   0.0000
   108 H2E         18.3805     4.6888    15.5642 H            1 ACX600   0.0000
   109 H3E         18.9876     4.2004    18.3268 H            1 ACX600   0.0000
   110 H4E         16.4903     5.2768    17.3467 H            1 ACX600   0.0000
   111 H5E         16.8935     2.6115    18.3902 H            1 ACX600   0.0000
   112 H6E1        14.4359     3.5226    17.1815 H            1 ACX600   0.0000
   113 H6E2        14.6396     3.3395    18.7914 H            1 ACX600   0.0000
   114 H48         20.6984     4.7302    16.4925 H            1 ACX600   0.0000
   115 H49         19.9946     6.0730    18.0924 H            1 ACX600   0.0000
   116 H6E         14.2066     1.2680    18.6105 H            1 ACX600   0.0000
   117 H1F         21.3565    -2.5192    17.6805 H            1 ACX600   0.0000
   118 H2F         22.0482    -0.7563    16.2812 H            1 ACX600   0.0000
   119 H3F         20.8996     1.0638    18.1650 H            1 ACX600   0.0000
   120 H4F         19.6395     0.7646    15.6357 H            1 ACX600   0.0000
   121 H5F         18.3858    -0.4904    17.8806 H            1 ACX600   0.0000
   122 H6F1        17.9545    -1.6762    15.4096 H            1 ACX600   0.0000
   123 H6F2        17.6538    -0.0737    15.3183 H            1 ACX600   0.0000
   124 H58         22.8860    -1.0899    18.7924 H            1 ACX600   0.0000
   125 H59         21.1379     2.6430    16.5249 H            1 ACX600   0.0000
   126 H6F         16.2327    -0.2378    17.1195 H            1 ACX600   0.0000
@<TRIPOS>BOND
     1    1    2       1
     2    1    7       1
     3    1   10       1
     4    2    3       1
     5    2    8       1
     6    3    4       1
     7    3    9       1
     8    4    5       1
     9    4   62       1
    10    5    6       1
    11    5   10       1
    12    6   11       1
    13    7   15       1
    14   12   13       1
    15   12   18       1
    16   12   21       1
    17   13   14       1
    18   13   19       1
    19   14   15       1
    20   14   20       1
    21   15   16       1
    22   16   17       1
    23   16   21       1
    24   17   22       1
    25   18   26       1
    26   23   24       1
    27   23   29       1
    28   23   32       1
    29   24   25       1
    30   24   30       1
    31   25   26       1
    32   25   31       1
    33   26   27       1
    34   27   28       1
    35   27   32       1
    36   28   33       1
    37   29   37       1
    38   34   35       1
    39   34   40       1
    40   34   43       1
    41   35   36       1
    42   35   41       1
    43   36   37       1
    44   36   42       1
    45   37   38       1
    46   38   39       1
    47   38   43       1
    48   39   44       1
    49   40   48       1
    50   45   46       1
    51   45   51       1
    52   45   54       1
    53   46   47       1
    54   46   52       1
    55   47   48       1
    56   47   53       1
    57   48   49       1
    58   49   50       1
    59   49   54       1
    60   50   55       1
    61   51   59       1
    62   56   57       1
    63   56   62       1
    64   56   65       1
    65   57   58       1
    66   57   63       1
    67   58   59       1
    68   58   64       1
    69   59   60       1
    70   60   61       1
    71   60   65       1
    72   61   66       1
    73    1   67       1
    74    2   68       1
    75    3   69       1
    76    4   70       1
    77    5   71       1
    78    6   72       1
    79    6   73       1
    80    8   74       1
    81    9   75       1
    82   11   76       1
    83   12   77       1
    84   13   78       1
    85   14   79       1
    86   15   80       1
    87   16   81       1
    88   17   82       1
    89   17   83       1
    90   19   84       1
    91   20   85       1
    92   22   86       1
    93   23   87       1
    94   24   88       1
    95   25   89       1
    96   26   90       1
    97   27   91       1
    98   28   92       1
    99   28   93       1
   100   30   94       1
   101   31   95       1
   102   33   96       1
   103   34   97       1
   104   35   98       1
   105   36   99       1
   106   37  100       1
   107   38  101       1
   108   39  102       1
   109   39  103       1
   110   41  104       1
   111   42  105       1
   112   44  106       1
   113   45  107       1
   114   46  108       1
   115   47  109       1
   116   48  110       1
   117   49  111       1
   118   50  112       1
   119   50  113       1
   120   52  114       1
   121   53  115       1
   122   55  116       1
   123   56  117       1
   124   57  118       1
   125   58  119       1
   126   59  120       1
   127   60  121       1
   128   61  122       1
   129   61  123       1
   130   63  124       1
   131   64  125       1
   132   66  126       1
@<TRIPOS>SUBSTRUCTURE
     1 ACX600      1 GROUP             4 A     ACX     0 **** ACX A 600
