@<TRIPOS>MOLECULE
2oxt_SAM_4_ligand
   50    52     1     0     0
SMALL
NO_CHARGES


@<TRIPOS>ATOM
     1 N          -62.2470   -68.2260     1.2620 N.4          1 SAM300   1.0000
     2 CA         -61.9630   -68.6390     2.6410 C.3          1 SAM300   0.0000
     3 C          -61.9750   -70.1510     2.7870 C.2          1 SAM300   0.0000
     4 O          -62.7900   -70.8140     2.1480 O.co2        1 SAM300   0.0000
     5 OXT        -61.1860   -70.7340     3.5370 O.co2        1 SAM300  -1.0000
     6 CB         -62.9670   -68.0390     3.6110 C.3          1 SAM300   0.0000
     7 CG         -62.4130   -67.6240     4.9670 C.3          1 SAM300   0.0000
     8 SD         -63.7110   -66.7290     5.8520 S.3          1 SAM300   1.0000
     9 CE         -64.4730   -68.0980     6.7700 C.3          1 SAM300   0.0000
    10 C5'        -62.9050   -65.8170     7.1870 C.3          1 SAM300   0.0000
    11 C4'        -62.1710   -64.5600     6.7460 C.3          1 SAM300   0.0000
    12 O4'        -62.9920   -63.5120     6.2450 O.3          1 SAM300   0.0000
    13 C3'        -61.4610   -64.0080     7.9580 C.3          1 SAM300   0.0000
    14 O3'        -60.1260   -64.4440     7.8850 O.3          1 SAM300   0.0000
    15 C2'        -61.5970   -62.5020     7.8570 C.3          1 SAM300   0.0000
    16 O2'        -60.3300   -61.8770     7.8340 O.3          1 SAM300   0.0000
    17 C1'        -62.3380   -62.2880     6.5420 C.3          1 SAM300   0.0000
    18 N9         -63.1890   -61.0780     6.6450 N.pl3        1 SAM300   0.0000
    19 C8         -64.1960   -60.8070     7.5360 C.2          1 SAM300   0.0000
    20 N7         -64.6900   -59.5700     7.2870 N.2          1 SAM300   0.0000
    21 C5         -64.0010   -59.0290     6.2570 C.ar         1 SAM300   0.0000
    22 C6         -64.0730   -57.8000     5.5870 C.ar         1 SAM300   0.0000
    23 N6         -64.9510   -56.8630     5.9210 N.pl3        1 SAM300   0.0000
    24 N1         -63.2170   -57.5420     4.5440 N.ar         1 SAM300   0.0000
    25 C2         -62.2960   -58.4920     4.1580 C.ar         1 SAM300   0.0000
    26 N3         -62.2170   -59.7010     4.8200 N.ar         1 SAM300   0.0000
    27 C4         -63.0550   -59.9700     5.8520 C.ar         1 SAM300   0.0000
    28 H1         -62.7026   -67.3358     1.2678 H            1 SAM300   0.0000
    29 H2         -61.3900   -68.1586     0.7510 H            1 SAM300   0.0000
    30 HA         -61.0522   -68.3072     2.8868 H            1 SAM300   0.0000
    31 HB1        -63.6851   -68.7171     3.7676 H            1 SAM300   0.0000
    32 HB2        -63.3627   -67.2280     3.1801 H            1 SAM300   0.0000
    33 HG1        -61.6174   -67.0313     4.8414 H            1 SAM300   0.0000
    34 HG2        -62.1455   -68.4353     5.4868 H            1 SAM300   0.0000
    35 HE1        -65.2299   -67.7485     7.3223 H            1 SAM300   0.0000
    36 HE2        -64.8180   -68.7803     6.1255 H            1 SAM300   0.0000
    37 HE3        -63.7908   -68.5190     7.3678 H            1 SAM300   0.0000
    38 H5'1       -62.2439   -66.4260     7.6253 H            1 SAM300   0.0000
    39 H5'2       -63.6051   -65.5523     7.8502 H            1 SAM300   0.0000
    40 H4'        -61.4928   -64.8038     6.0527 H            1 SAM300   0.0000
    41 H3'        -61.8916   -64.3417     8.7966 H            1 SAM300   0.0000
    42 H15        -60.0883   -65.3244     7.4123 H            1 SAM300   0.0000
    43 H2'        -62.1404   -62.1526     8.6203 H            1 SAM300   0.0000
    44 H17        -59.6140   -62.5728     7.8900 H            1 SAM300   0.0000
    45 H1'        -61.6563   -62.1237     5.8291 H            1 SAM300   0.0000
    46 H19        -64.5150   -61.4243     8.2552 H            1 SAM300   0.0000
    47 H20        -64.9735   -55.9976     5.4203 H            1 SAM300   0.0000
    48 H21        -65.5902   -57.0221     6.6734 H            1 SAM300   0.0000
    49 H22        -61.6804   -58.3042     3.3927 H            1 SAM300   0.0000
    50 H23        -62.8419   -68.9021     0.8274 H            1 SAM300   0.0000
@<TRIPOS>BOND
     1    1    2       1
     2    2    3       1
     3    2    6       1
     4    3    4      ar
     5    3    5      ar
     6    6    7       1
     7    7    8       1
     8    8    9       1
     9    8   10       1
    10   10   11       1
    11   11   12       1
    12   11   13       1
    13   12   17       1
    14   13   14       1
    15   13   15       1
    16   15   16       1
    17   15   17       1
    18   17   18       1
    19   18   19       1
    20   18   27       1
    21   19   20       2
    22   20   21       1
    23   21   22      ar
    24   21   27      ar
    25   22   23       1
    26   22   24      ar
    27   24   25      ar
    28   25   26      ar
    29   26   27      ar
    30    1   28       1
    31    1   29       1
    32    2   30       1
    33    1   50       1
    34    6   31       1
    35    6   32       1
    36    7   33       1
    37    7   34       1
    38    9   35       1
    39    9   36       1
    40    9   37       1
    41   10   38       1
    42   10   39       1
    43   11   40       1
    44   13   41       1
    45   14   42       1
    46   15   43       1
    47   16   44       1
    48   17   45       1
    49   19   46       1
    50   23   47       1
    51   23   48       1
    52   25   49       1
@<TRIPOS>SUBSTRUCTURE
     1 SAM300      1 GROUP             4 D     SAM     0 **** SAM D 300
