@<TRIPOS>MOLECULE
3qgi_33F_1_ligand
   78    81     1     0     0
SMALL
NO_CHARGES


@<TRIPOS>ATOM
     1 C1           7.5310    33.1940    49.1560 C.ar         1 33F601   0.0000
     2 C2           7.8980    34.9890    50.7780 C.ar         1 33F601   0.0000
     3 C3           8.7320    32.5750    49.5570 C.ar         1 33F601   0.0000
     4 C4           9.0940    34.3620    51.1850 C.ar         1 33F601   0.0000
     5 C5           7.3010    43.2080    46.1420 C.ar         1 33F601   0.0000
     6 C6           9.3240    41.9060    45.6130 C.ar         1 33F601   0.0000
     7 C7           6.9110    42.2410    47.0760 C.ar         1 33F601   0.0000
     8 C8           8.9380    40.9270    46.5560 C.ar         1 33F601   0.0000
     9 C9           2.9950    35.2350    43.7530 C.ar         1 33F601   0.0000
    10 C10          3.9850    36.1710    44.1420 C.ar         1 33F601   0.0000
    11 C11          7.1160    34.3970    49.7620 C.ar         1 33F601   0.0000
    12 C12          9.5170    33.1580    50.5810 C.ar         1 33F601   0.0000
    13 C13          8.5070    43.0550    45.4140 C.ar         1 33F601   0.0000
    14 C14          7.7300    41.1050    47.2580 C.ar         1 33F601   0.0000
    15 C15          1.6790    35.4210    44.2150 C.ar         1 33F601   0.0000
    16 C16          3.5960    37.2480    44.9800 C.ar         1 33F601   0.0000
    17 C17          0.6000    34.4460    43.8040 C.2          1 33F601   0.0000
    18 C18          6.3430    36.4050    47.2690 C.2          1 33F601   0.0000
    19 C19          4.1280    39.3180    46.2690 C.3          1 33F601   0.0000
    20 C20          4.6410    39.1550    47.7060 C.3          1 33F601   0.0000
    21 C21          5.9470    38.0460    45.3190 C.3          1 33F601   0.0000
    22 C22          6.5630    37.8280    46.7200 C.3          1 33F601   0.0000
    23 C23         -2.6180    35.8880    42.7910 C.3          1 33F601   0.0000
    24 C24         -1.9830    32.6950    45.0280 C.3          1 33F601   0.0000
    25 C25          5.8360    35.0730    49.3270 C.3          1 33F601   0.0000
    26 C26         -2.9660    34.7910    43.8060 C.3          1 33F601   0.0000
    27 C27         -1.7840    33.8270    44.0070 C.3          1 33F601   0.0000
    28 C28         11.8920    33.1310    50.6510 C.3          1 33F601   0.0000
    29 C29         10.1670    44.2160    44.1000 C.3          1 33F601   0.0000
    30 N30          1.3600    36.4700    45.0160 N.ar         1 33F601   0.0000
    31 N31          2.3060    37.3540    45.4070 N.ar         1 33F601   0.0000
    32 N32          4.4890    38.1870    45.4090 N.pl3        1 33F601   0.0000
    33 N33          6.0900    38.8780    47.6640 N.3          1 33F601   0.0000
    34 N34         -0.6130    34.6530    44.3250 N.am         1 33F601   0.0000
    35 N35          6.0730    36.2990    48.5840 N.am         1 33F601   0.0000
    36 O36          0.8420    33.4860    43.0600 O.2          1 33F601   0.0000
    37 O37          6.4210    35.4310    46.5330 O.2          1 33F601   0.0000
    38 O38          6.4820    40.6380    49.4870 O.2          1 33F601   0.0000
    39 O39          8.3880    39.0700    48.7440 O.2          1 33F601   0.0000
    40 O40         10.6960    32.6200    51.0550 O.3          1 33F601   0.0000
    41 O41          8.9020    44.0000    44.4960 O.3          1 33F601   0.0000
    42 F42         12.0020    33.2220    49.3210 F            1 33F601   0.0000
    43 F43         12.1350    34.3630    51.1580 F            1 33F601   0.0000
    44 F44         12.8770    32.3010    51.0730 F            1 33F601   0.0000
    45 F45         11.0330    44.3000    45.1230 F            1 33F601   0.0000
    46 F46         10.5740    43.2470    43.2710 F            1 33F601   0.0000
    47 F47         10.1830    45.3890    43.4250 F            1 33F601   0.0000
    48 S48          7.2190    39.9000    48.4520 S.o2         1 33F601   0.0000
    49 H1           6.9714    32.7783    48.4391 H            1 33F601   0.0000
    50 H2           7.6064    35.8450    51.2050 H            1 33F601   0.0000
    51 H3           9.0289    31.7263    49.1194 H            1 33F601   0.0000
    52 H4           9.6478    34.7742    51.9084 H            1 33F601   0.0000
    53 H5           6.7254    44.0111    45.9877 H            1 33F601   0.0000
    54 H6          10.1673    41.7923    45.0877 H            1 33F601   0.0000
    55 H7           6.0691    42.3524    47.6039 H            1 33F601   0.0000
    56 H8           9.5108    40.1242    46.7216 H            1 33F601   0.0000
    57 H9           3.2261    34.4606    43.1641 H            1 33F601   0.0000
    58 H10          4.9317    36.0753    43.8345 H            1 33F601   0.0000
    59 H11          4.5201    40.1525    45.8818 H            1 33F601   0.0000
    60 H12          3.1314    39.3974    46.2919 H            1 33F601   0.0000
    61 H13          4.1659    38.3944    48.1484 H            1 33F601   0.0000
    62 H14          4.4742    39.9964    48.2201 H            1 33F601   0.0000
    63 H15          6.1656    37.2615    44.7387 H            1 33F601   0.0000
    64 H16          6.3328    38.8762    44.9165 H            1 33F601   0.0000
    65 H17          7.5507    37.9506    46.6233 H            1 33F601   0.0000
    66 H18         -3.4014    36.4994    42.6792 H            1 33F601   0.0000
    67 H19         -1.8319    36.4105    43.1213 H            1 33F601   0.0000
    68 H20         -2.3939    35.4690    41.9111 H            1 33F601   0.0000
    69 H21         -1.1543    32.1371    45.0728 H            1 33F601   0.0000
    70 H22         -2.1697    33.0874    45.9286 H            1 33F601   0.0000
    71 H23         -2.7544    32.1242    44.7467 H            1 33F601   0.0000
    72 H24          5.2971    35.2912    50.1406 H            1 33F601   0.0000
    73 H25          5.3222    34.4415    48.7464 H            1 33F601   0.0000
    74 H26         -3.7549    34.2752    43.4718 H            1 33F601   0.0000
    75 H27         -3.1929    35.2167    44.6820 H            1 33F601   0.0000
    76 H28         -1.6056    33.3951    43.1229 H            1 33F601   0.0000
    77 H29         -0.7293    35.4116    44.9661 H            1 33F601   0.0000
    78 H30          6.0313    37.1527    49.1031 H            1 33F601   0.0000
@<TRIPOS>BOND
     1    1    3      ar
     2    1   11      ar
     3    2    4      ar
     4    2   11      ar
     5    3   12      ar
     6    4   12      ar
     7    5    7      ar
     8    5   13      ar
     9    6    8      ar
    10    6   13      ar
    11    7   14      ar
    12    8   14      ar
    13    9   10      ar
    14    9   15      ar
    15   10   16      ar
    16   11   25       1
    17   12   40       1
    18   13   41       1
    19   14   48       1
    20   15   17       1
    21   15   30      ar
    22   16   31      ar
    23   16   32       1
    24   17   34      am
    25   17   36       2
    26   18   22       1
    27   18   35      am
    28   18   37       2
    29   19   20       1
    30   19   32       1
    31   20   33       1
    32   21   22       1
    33   21   32       1
    34   22   33       1
    35   23   26       1
    36   24   27       1
    37   25   35       1
    38   26   27       1
    39   27   34       1
    40   28   40       1
    41   28   42       1
    42   28   43       1
    43   28   44       1
    44   29   41       1
    45   29   45       1
    46   29   46       1
    47   29   47       1
    48   30   31      ar
    49   33   48       1
    50   38   48       2
    51   39   48       2
    52    1   49       1
    53    2   50       1
    54    3   51       1
    55    4   52       1
    56    5   53       1
    57    6   54       1
    58    7   55       1
    59    8   56       1
    60    9   57       1
    61   10   58       1
    62   19   59       1
    63   19   60       1
    64   20   61       1
    65   20   62       1
    66   21   63       1
    67   21   64       1
    68   22   65       1
    69   23   66       1
    70   23   67       1
    71   23   68       1
    72   24   69       1
    73   24   70       1
    74   24   71       1
    75   25   72       1
    76   25   73       1
    77   26   74       1
    78   26   75       1
    79   27   76       1
    80   34   77       1
    81   35   78       1
@<TRIPOS>SUBSTRUCTURE
     1 33F601      1 GROUP             4 A     33F     0 **** 33F A 601
