@<TRIPOS>MOLECULE
4d1y_RBF_1_ligand
   47    49     1     0     0
SMALL
NO_CHARGES


@<TRIPOS>ATOM
     1 N1         -35.0430    -7.4820    31.7770 N.2          1 RBF1176   0.0000
     2 C2         -35.2090    -6.8610    32.9730 C.2          1 RBF1176   0.0000
     3 O2         -35.0130    -7.5090    34.0240 O.2          1 RBF1176   0.0000
     4 N3         -35.5710    -5.5710    33.0750 N.pl3        1 RBF1176   0.0000
     5 C4         -35.7970    -4.8040    32.0030 C.2          1 RBF1176   0.0000
     6 O4         -36.1360    -3.6090    32.1360 O.2          1 RBF1176   0.0000
     7 C4A        -35.6430    -5.4080    30.6580 C.2          1 RBF1176   0.0000
     8 N5         -35.8570    -4.6970    29.5300 N.2          1 RBF1176   0.0000
     9 C5A        -35.7110    -5.2720    28.3150 C.ar         1 RBF1176   0.0000
    10 C6         -35.9440    -4.5200    27.1700 C.ar         1 RBF1176   0.0000
    11 C7         -35.7980    -5.0990    25.9150 C.ar         1 RBF1176   0.0000
    12 C7M        -36.0510    -4.2780    24.6790 C.3          1 RBF1176   0.0000
    13 C8         -35.3920    -6.5250    25.7950 C.ar         1 RBF1176   0.0000
    14 C8M        -35.2360    -7.1480    24.4330 C.3          1 RBF1176   0.0000
    15 C9         -35.1590    -7.2810    26.9380 C.ar         1 RBF1176   0.0000
    16 C9A        -35.3050    -6.7030    28.1950 C.ar         1 RBF1176   0.0000
    17 N10        -35.0840    -7.4670    29.3610 N.pl3        1 RBF1176   0.0000
    18 C10        -35.2380    -6.8320    30.6100 C.2          1 RBF1176   0.0000
    19 C1'        -34.6690    -8.8730    29.2640 C.3          1 RBF1176   0.0000
    20 C2'        -35.7470    -9.8610    29.6930 C.3          1 RBF1176   0.0000
    21 O2'        -35.9740    -9.7340    31.0990 O.3          1 RBF1176   0.0000
    22 C3'        -35.2930   -11.2850    29.3900 C.3          1 RBF1176   0.0000
    23 O3'        -34.5770   -11.3130    28.1480 O.3          1 RBF1176   0.0000
    24 C4'        -36.4680   -12.2570    29.3280 C.3          1 RBF1176   0.0000
    25 O4'        -37.6760   -11.5440    29.0390 O.3          1 RBF1176   0.0000
    26 C5'        -36.6340   -13.0040    30.6450 C.3          1 RBF1176   0.0000
    27 O5'        -35.4940   -13.8430    30.8640 O.3          1 RBF1176   0.0000
    28 H1         -35.6752    -5.1701    33.9852 H            1 RBF1176   0.0000
    29 H2         -36.2170    -3.5612    27.2491 H            1 RBF1176   0.0000
    30 H7M1       -35.9023    -4.8429    23.8674 H            1 RBF1176   0.0000
    31 H7M2       -36.9945    -3.9467    24.6862 H            1 RBF1176   0.0000
    32 H7M3       -35.4243    -3.4989    24.6623 H            1 RBF1176   0.0000
    33 H8M1       -34.9608    -8.1041    24.5333 H            1 RBF1176   0.0000
    34 H8M2       -36.1067    -7.1013    23.9434 H            1 RBF1176   0.0000
    35 H8M3       -34.5369    -6.6522    23.9178 H            1 RBF1176   0.0000
    36 H9         -34.8866    -8.2398    26.8568 H            1 RBF1176   0.0000
    37 H1'1       -33.8680    -9.0067    29.8475 H            1 RBF1176   0.0000
    38 H1'2       -34.4248    -9.0652    28.3135 H            1 RBF1176   0.0000
    39 H2'        -36.5943    -9.6675    29.1984 H            1 RBF1176   0.0000
    40 H13        -35.7913    -8.7926    31.3825 H            1 RBF1176   0.0000
    41 H3'        -34.6751   -11.5817    30.1181 H            1 RBF1176   0.0000
    42 H15        -34.2818   -12.2486    27.9544 H            1 RBF1176   0.0000
    43 H4'        -36.3012   -12.9203    28.5985 H            1 RBF1176   0.0000
    44 H17        -38.4412   -12.1867    28.9999 H            1 RBF1176   0.0000
    45 H5'1       -37.4599   -13.5666    30.6075 H            1 RBF1176   0.0000
    46 H5'2       -36.7126   -12.3461    31.3940 H            1 RBF1176   0.0000
    47 H5'        -35.0420   -13.5757    31.7150 H            1 RBF1176   0.0000
@<TRIPOS>BOND
     1    1    2       1
     2    1   18       2
     3    2    3       2
     4    2    4       1
     5    4    5       1
     6    5    6       2
     7    5    7       1
     8    7    8       2
     9    7   18       1
    10    8    9       1
    11    9   10      ar
    12    9   16      ar
    13   10   11      ar
    14   11   12       1
    15   11   13      ar
    16   13   14       1
    17   13   15      ar
    18   15   16      ar
    19   16   17       1
    20   17   18       1
    21   17   19       1
    22   19   20       1
    23   20   21       1
    24   20   22       1
    25   22   23       1
    26   22   24       1
    27   24   25       1
    28   24   26       1
    29   26   27       1
    30    4   28       1
    31   10   29       1
    32   12   30       1
    33   12   31       1
    34   12   32       1
    35   14   33       1
    36   14   34       1
    37   14   35       1
    38   15   36       1
    39   19   37       1
    40   19   38       1
    41   20   39       1
    42   21   40       1
    43   22   41       1
    44   23   42       1
    45   24   43       1
    46   25   44       1
    47   26   45       1
    48   26   46       1
    49   27   47       1
@<TRIPOS>SUBSTRUCTURE
     1 RBF1176     1 GROUP             4 A     RBF     0 **** RBF A1176
