@<TRIPOS>MOLECULE
4or2_CLR_3_ligand
   74    77     1     0     0
SMALL
NO_CHARGES


@<TRIPOS>ATOM
     1 C1          18.7830    -2.4750    27.9450 C.3          1 CLR1904   0.0000
     2 C2          18.6940    -2.1210    26.4530 C.3          1 CLR1904   0.0000
     3 C3          17.5180    -1.1930    26.1520 C.3          1 CLR1904   0.0000
     4 C4          17.6340     0.0790    26.9900 C.3          1 CLR1904   0.0000
     5 C5          17.8860    -0.2260    28.4600 C.2          1 CLR1904   0.0000
     6 C6          17.1510     0.4770    29.3510 C.2          1 CLR1904   0.0000
     7 C7          17.4270     0.5410    30.8440 C.3          1 CLR1904   0.0000
     8 C8          18.5190    -0.4350    31.3040 C.3          1 CLR1904   0.0000
     9 C9          18.5870    -1.6650    30.3640 C.3          1 CLR1904   0.0000
    10 C10         18.9140    -1.2750    28.8980 C.3          1 CLR1904   0.0000
    11 C11         19.3320    -2.8920    30.9450 C.3          1 CLR1904   0.0000
    12 C12         19.1330    -3.1380    32.4560 C.3          1 CLR1904   0.0000
    13 C13         19.3550    -1.8910    33.3350 C.3          1 CLR1904   0.0000
    14 C14         18.3800    -0.8460    32.7830 C.3          1 CLR1904   0.0000
    15 C15         18.1430     0.2000    33.8690 C.3          1 CLR1904   0.0000
    16 C16         18.3530    -0.5670    35.1700 C.3          1 CLR1904   0.0000
    17 C17         18.8250    -1.9780    34.7930 C.3          1 CLR1904   0.0000
    18 C18         20.8360    -1.4510    33.2690 C.3          1 CLR1904   0.0000
    19 C19         20.3320    -0.6890    28.7710 C.3          1 CLR1904   0.0000
    20 C20         19.5850    -2.6960    35.9370 C.3          1 CLR1904   0.0000
    21 C21         20.0720    -4.1020    35.6010 C.3          1 CLR1904   0.0000
    22 C22         18.7550    -2.8510    37.2190 C.3          1 CLR1904   0.0000
    23 C23         19.2520    -2.0300    38.4140 C.3          1 CLR1904   0.0000
    24 C24         20.5650    -2.4870    39.0670 C.3          1 CLR1904   0.0000
    25 C25         20.4780    -3.6170    40.0970 C.3          1 CLR1904   0.0000
    26 C26         19.4670    -3.3790    41.2140 C.3          1 CLR1904   0.0000
    27 C27         21.8560    -3.8540    40.7030 C.3          1 CLR1904   0.0000
    28 O1          17.5420    -0.8280    24.7680 O.3          1 CLR1904   0.0000
    29 H1          19.5816    -3.0624    28.0761 H            1 CLR1904   0.0000
    30 H2          17.9550    -2.9778    28.1932 H            1 CLR1904   0.0000
    31 H3          18.5820    -2.9644    25.9275 H            1 CLR1904   0.0000
    32 H4          19.5416    -1.6671    26.1781 H            1 CLR1904   0.0000
    33 H5          16.6585    -1.6586    26.3630 H            1 CLR1904   0.0000
    34 H6          16.7826     0.5972    26.9094 H            1 CLR1904   0.0000
    35 H7          18.3929     0.6280    26.6397 H            1 CLR1904   0.0000
    36 H8          16.3685     0.9926    29.0019 H            1 CLR1904   0.0000
    37 H9          16.5817     0.3241    31.3323 H            1 CLR1904   0.0000
    38 H10         17.7154     1.4706    31.0736 H            1 CLR1904   0.0000
    39 H11         19.3920     0.0449    31.2172 H            1 CLR1904   0.0000
    40 H12         17.6367    -1.9725    30.3155 H            1 CLR1904   0.0000
    41 H13         20.3101    -2.7648    30.7800 H            1 CLR1904   0.0000
    42 H14         19.0145    -3.7047    30.4564 H            1 CLR1904   0.0000
    43 H15         19.7781    -3.8449    32.7461 H            1 CLR1904   0.0000
    44 H16         18.1976    -3.4608    32.6005 H            1 CLR1904   0.0000
    45 H17         17.5144    -1.3467    32.7813 H            1 CLR1904   0.0000
    46 H18         17.2127     0.5629    33.8163 H            1 CLR1904   0.0000
    47 H19         18.7987     0.9507    33.7889 H            1 CLR1904   0.0000
    48 H20         17.4945    -0.6177    35.6804 H            1 CLR1904   0.0000
    49 H21         19.0463    -0.1114    35.7284 H            1 CLR1904   0.0000
    50 H22         17.9756    -2.4987    34.7073 H            1 CLR1904   0.0000
    51 H23         20.9693    -0.6423    33.8419 H            1 CLR1904   0.0000
    52 H24         21.4193    -2.1932    33.5991 H            1 CLR1904   0.0000
    53 H25         21.0771    -1.2330    32.3233 H            1 CLR1904   0.0000
    54 H26         20.4262     0.0925    29.3878 H            1 CLR1904   0.0000
    55 H27         21.0046    -1.3881    29.0137 H            1 CLR1904   0.0000
    56 H28         20.4863    -0.3908    27.8291 H            1 CLR1904   0.0000
    57 H29         20.3876    -2.1431    36.1610 H            1 CLR1904   0.0000
    58 H30         20.5484    -4.4875    36.3912 H            1 CLR1904   0.0000
    59 H31         19.2891    -4.6795    35.3695 H            1 CLR1904   0.0000
    60 H32         20.6977    -4.0608    34.8220 H            1 CLR1904   0.0000
    61 H33         18.7644    -3.8163    37.4801 H            1 CLR1904   0.0000
    62 H34         17.8169    -2.5693    37.0174 H            1 CLR1904   0.0000
    63 H35         18.5400    -2.0548    39.1157 H            1 CLR1904   0.0000
    64 H36         19.3803    -1.0885    38.1024 H            1 CLR1904   0.0000
    65 H37         20.9658    -1.6932    39.5244 H            1 CLR1904   0.0000
    66 H38         21.1743    -2.7930    38.3355 H            1 CLR1904   0.0000
    67 H39         20.2092    -4.4504    39.6141 H            1 CLR1904   0.0000
    68 H40         19.4723    -4.1587    41.8401 H            1 CLR1904   0.0000
    69 H41         19.7121    -2.5484    41.7140 H            1 CLR1904   0.0000
    70 H42         18.5538    -3.2739    40.8202 H            1 CLR1904   0.0000
    71 H43         21.8018    -4.5916    41.3761 H            1 CLR1904   0.0000
    72 H44         22.4986    -4.1087    39.9804 H            1 CLR1904   0.0000
    73 H45         22.1719    -3.0172    41.1502 H            1 CLR1904   0.0000
    74 H46         16.7726    -0.2206    24.5701 H            1 CLR1904   0.0000
@<TRIPOS>BOND
     1    1    2       1
     2    1   10       1
     3    2    3       1
     4    3    4       1
     5    3   28       1
     6    4    5       1
     7    5    6       2
     8    5   10       1
     9    6    7       1
    10    7    8       1
    11    8    9       1
    12    8   14       1
    13    9   10       1
    14    9   11       1
    15   10   19       1
    16   11   12       1
    17   12   13       1
    18   13   14       1
    19   13   17       1
    20   13   18       1
    21   14   15       1
    22   15   16       1
    23   16   17       1
    24   17   20       1
    25   20   21       1
    26   20   22       1
    27   22   23       1
    28   23   24       1
    29   24   25       1
    30   25   26       1
    31   25   27       1
    32    1   29       1
    33    1   30       1
    34    2   31       1
    35    2   32       1
    36    3   33       1
    37    4   34       1
    38    4   35       1
    39    6   36       1
    40    7   37       1
    41    7   38       1
    42    8   39       1
    43    9   40       1
    44   11   41       1
    45   11   42       1
    46   12   43       1
    47   12   44       1
    48   14   45       1
    49   15   46       1
    50   15   47       1
    51   16   48       1
    52   16   49       1
    53   17   50       1
    54   18   51       1
    55   18   52       1
    56   18   53       1
    57   19   54       1
    58   19   55       1
    59   19   56       1
    60   20   57       1
    61   21   58       1
    62   21   59       1
    63   21   60       1
    64   22   61       1
    65   22   62       1
    66   23   63       1
    67   23   64       1
    68   24   65       1
    69   24   66       1
    70   25   67       1
    71   26   68       1
    72   26   69       1
    73   26   70       1
    74   27   71       1
    75   27   72       1
    76   27   73       1
    77   28   74       1
@<TRIPOS>SUBSTRUCTURE
     1 CLR1904     1 GROUP             4 A     CLR     0 **** CLR A1904
