@<TRIPOS>MOLECULE
5c88_COA_1_ligand
   80    82     1     0     0
SMALL
NO_CHARGES


@<TRIPOS>ATOM
     1 N1A        -45.4320   -96.8960   -18.4280 N.ar         1 COA300   0.0000
     2 C2A        -44.7740   -95.9080   -17.7490 C.ar         1 COA300   0.0000
     3 N3A        -43.4200   -95.9760   -17.5630 N.ar         1 COA300   0.0000
     4 C4A        -42.7110   -97.0360   -18.0550 C.ar         1 COA300   0.0000
     5 C5A        -43.3540   -98.0210   -18.7230 C.ar         1 COA300   0.0000
     6 C6A        -44.7300   -97.9420   -18.9030 C.ar         1 COA300   0.0000
     7 N6A        -45.8880   -98.5710   -19.4520 N.pl3        1 COA300   0.0000
     8 N7A        -42.4350   -98.9520   -19.1080 N.2          1 COA300   0.0000
     9 C8A        -41.2200   -98.5380   -18.6690 C.2          1 COA300   0.0000
    10 N9A        -41.3800   -97.3560   -18.0190 N.pl3        1 COA300   0.0000
    11 C1B        -40.3720   -96.5640   -17.3990 C.3          1 COA300   0.0000
    12 C2B        -40.5220   -96.5250   -16.0960 C.3          1 COA300   0.0000
    13 O2B        -40.0270   -95.2590   -15.5710 O.3          1 COA300   0.0000
    14 C3B        -39.6360   -97.7480   -15.5070 C.3          1 COA300   0.0000
    15 O3B        -39.3250   -97.4600   -14.1500 O.3          1 COA300   0.0000
    16 P3B        -40.1330   -98.2360   -12.9990 P.3          1 COA300   0.0000
    17 O7A        -39.1930   -98.5050   -11.8480 O.co2        1 COA300   0.0000
    18 O8A        -40.6630   -99.5350   -13.5810 O.co2        1 COA300  -1.0000
    19 O9A        -41.2730   -97.3640   -12.5150 O.co2        1 COA300  -1.0000
    20 C4B        -38.5070   -97.7780   -16.2620 C.3          1 COA300   0.0000
    21 O4B        -38.9750   -97.2900   -17.6220 O.3          1 COA300   0.0000
    22 C5B        -37.9080   -99.1740   -16.3970 C.3          1 COA300   0.0000
    23 O5B        -38.7280   -99.9730   -17.2440 O.3          1 COA300   0.0000
    24 P1A        -38.1310  -101.2890   -17.9370 P.3          1 COA300   0.0000
    25 O1A        -36.6580  -101.4620   -17.6020 O.co2        1 COA300   0.0000
    26 O2A        -38.8750  -102.5200   -17.4560 O.co2        1 COA300  -1.0000
    27 O3A        -38.2720  -101.0700   -19.4970 O.3          1 COA300   0.0000
    28 P2A        -39.2450  -101.8560   -20.4200 P.3          1 COA300   0.0000
    29 O4A        -40.6290  -101.8490   -19.8030 O.co2        1 COA300   0.0000
    30 O5A        -38.7150  -103.2740   -20.5540 O.co2        1 COA300  -1.0000
    31 O6A        -39.3330  -101.1680   -21.9220 O.3          1 COA300   0.0000
    32 CBP        -40.5010   -99.3740   -23.2320 C.3          1 COA300   0.0000
    33 CCP        -39.5490   -99.7490   -22.0570 C.3          1 COA300   0.0000
    34 CDP        -41.8630  -100.1260   -23.1650 C.3          1 COA300   0.0000
    35 CEP        -40.7580   -97.8460   -23.1670 C.3          1 COA300   0.0000
    36 CAP        -39.8000   -99.7020   -24.6120 C.3          1 COA300   0.0000
    37 OAP        -38.4480   -99.9520   -24.3690 O.3          1 COA300   0.0000
    38 C9P        -40.4250  -100.8720   -25.2790 C.2          1 COA300   0.0000
    39 O9P        -40.1110  -101.9730   -24.9780 O.2          1 COA300   0.0000
    40 N8P        -41.4240  -100.7360   -26.3170 N.am         1 COA300   0.0000
    41 C7P        -41.8840   -99.4400   -26.7630 C.3          1 COA300   0.0000
    42 C6P        -41.1880   -99.1410   -28.1320 C.3          1 COA300   0.0000
    43 C5P        -41.1480   -97.5940   -28.2890 C.2          1 COA300   0.0000
    44 O5P        -42.1940   -96.9620   -28.4200 O.2          1 COA300   0.0000
    45 N4P        -39.8700   -96.9250   -28.2670 N.am         1 COA300   0.0000
    46 C3P        -38.6870   -97.6720   -28.1150 C.3          1 COA300   0.0000
    47 C2P        -37.5040   -96.8510   -28.6870 C.3          1 COA300   0.0000
    48 S1P        -37.8330   -95.0980   -28.5460 S.3          1 COA300   0.0000
    49 H2A        -45.2863   -95.1298   -17.3856 H            1 COA300   0.0000
    50 H6A1       -45.8026   -99.4441   -19.9319 H            1 COA300   0.0000
    51 H6A2       -46.7846   -98.1385   -19.3566 H            1 COA300   0.0000
    52 H8A        -40.3542   -99.0207   -18.8013 H            1 COA300   0.0000
    53 H1B        -40.3585   -95.6409   -17.7833 H            1 COA300   0.0000
    54 H2B        -41.4847   -96.6472   -15.8545 H            1 COA300   0.0000
    55 H7         -40.1462   -95.2404   -14.5783 H            1 COA300   0.0000
    56 H3B        -40.1335   -98.6124   -15.5801 H            1 COA300   0.0000
    57 H4B        -37.8270   -97.1479   -15.8871 H            1 COA300   0.0000
    58 H5B1       -37.8508   -99.5991   -15.4937 H            1 COA300   0.0000
    59 H5B2       -36.9917   -99.1050   -16.7915 H            1 COA300   0.0000
    60 HCP1       -38.6652   -99.3077   -22.2126 H            1 COA300   0.0000
    61 HCP2       -39.9470   -99.4071   -21.2057 H            1 COA300   0.0000
    62 HDP1       -42.4342   -99.8507   -23.9383 H            1 COA300   0.0000
    63 HDP2       -41.7016  -101.1121   -23.2043 H            1 COA300   0.0000
    64 HDP3       -42.3278   -99.8981   -22.3094 H            1 COA300   0.0000
    65 HEP1       -41.3681   -97.5786   -23.9128 H            1 COA300   0.0000
    66 HEP2       -41.1819   -97.6162   -22.2909 H            1 COA300   0.0000
    67 HEP3       -39.8897   -97.3579   -23.2554 H            1 COA300   0.0000
    68 HAP        -39.8793   -98.9064   -25.2126 H            1 COA300   0.0000
    69 H21        -38.3594  -100.7294   -23.7463 H            1 COA300   0.0000
    70 H8P        -41.8059  -101.5595   -26.7365 H            1 COA300   0.0000
    71 H7P1       -41.6354   -98.7402   -26.0933 H            1 COA300   0.0000
    72 H7P2       -42.8771   -99.4516   -26.8800 H            1 COA300   0.0000
    73 H6P1       -41.7109   -99.5493   -28.8802 H            1 COA300   0.0000
    74 H6P2       -40.2590   -99.5111   -28.1337 H            1 COA300   0.0000
    75 H4P        -39.8247   -95.9303   -28.3598 H            1 COA300   0.0000
    76 H3P1       -38.7684   -98.5360   -28.6119 H            1 COA300   0.0000
    77 H3P2       -38.5292   -97.8588   -27.1453 H            1 COA300   0.0000
    78 H2P1       -37.3760   -97.0855   -29.6507 H            1 COA300   0.0000
    79 H2P2       -36.6728   -97.0720   -28.1769 H            1 COA300   0.0000
    80 H1P        -37.3759   -94.6121   -29.2909 H            1 COA300   0.0000
@<TRIPOS>BOND
     1    1    2      ar
     2    1    6      ar
     3    2    3      ar
     4    3    4      ar
     5    4    5      ar
     6    4   10       1
     7    5    6      ar
     8    5    8       1
     9    6    7       1
    10    8    9       2
    11    9   10       1
    12   10   11       1
    13   11   12       1
    14   11   21       1
    15   12   13       1
    16   12   14       1
    17   14   15       1
    18   14   20       1
    19   15   16       1
    20   16   17      ar
    21   16   18      ar
    22   16   19      ar
    23   20   21       1
    24   20   22       1
    25   22   23       1
    26   23   24       1
    27   24   25      ar
    28   24   26      ar
    29   24   27       1
    30   27   28       1
    31   28   29      ar
    32   28   30      ar
    33   28   31       1
    34   31   33       1
    35   32   33       1
    36   32   34       1
    37   32   35       1
    38   32   36       1
    39   36   37       1
    40   36   38       1
    41   38   39       2
    42   38   40      am
    43   40   41       1
    44   41   42       1
    45   42   43       1
    46   43   44       2
    47   43   45      am
    48   45   46       1
    49   46   47       1
    50   47   48       1
    51    2   49       1
    52    7   50       1
    53    7   51       1
    54    9   52       1
    55   11   53       1
    56   12   54       1
    57   13   55       1
    58   14   56       1
    59   48   80       1
    60   47   79       1
    61   20   57       1
    62   22   58       1
    63   22   59       1
    64   47   78       1
    65   46   77       1
    66   33   60       1
    67   33   61       1
    68   34   62       1
    69   34   63       1
    70   34   64       1
    71   35   65       1
    72   35   66       1
    73   35   67       1
    74   36   68       1
    75   37   69       1
    76   40   70       1
    77   41   71       1
    78   41   72       1
    79   42   73       1
    80   42   74       1
    81   45   75       1
    82   46   76       1
@<TRIPOS>SUBSTRUCTURE
     1 COA300      1 GROUP             4 A     COA     0 **** COA A 300
