@<TRIPOS>MOLECULE
2i5b_ADP_5_ligand
   39    41     1     0     0
SMALL
NO_CHARGES


@<TRIPOS>ATOM
     1 PB           3.8850    -5.0460   -43.7780 P.3          1 ADP701   0.0000
     2 O1B          3.6280    -5.7450   -42.4500 O.co2        1 ADP701   0.0000
     3 O2B          2.8660    -5.3590   -44.8500 O.co2        1 ADP701  -1.0000
     4 O3B          5.3180    -5.2070   -44.2650 O.co2        1 ADP701  -1.0000
     5 PA           2.5180    -2.9290   -42.4510 P.3          1 ADP701   0.0000
     6 O1A          1.2660    -3.6810   -42.7890 O.co2        1 ADP701   0.0000
     7 O2A          3.0530    -2.9350   -41.0300 O.co2        1 ADP701  -1.0000
     8 O3A          3.6840    -3.4690   -43.4380 O.3          1 ADP701   0.0000
     9 O5'          2.3110    -1.3950   -42.9040 O.3          1 ADP701   0.0000
    10 C5'          1.7510    -0.9980   -44.1590 C.3          1 ADP701   0.0000
    11 C4'          0.8290     0.2270   -44.0090 C.3          1 ADP701   0.0000
    12 O4'         -0.5420    -0.1860   -43.9360 O.3          1 ADP701   0.0000
    13 C3'          1.0530     1.0730   -42.7600 C.3          1 ADP701   0.0000
    14 O3'          0.7460     2.4380   -43.0470 O.3          1 ADP701   0.0000
    15 C2'          0.0200     0.5680   -41.7830 C.3          1 ADP701   0.0000
    16 O2'         -0.3100     1.5560   -40.7950 O.3          1 ADP701   0.0000
    17 C1'         -1.1320     0.2400   -42.7140 C.3          1 ADP701   0.0000
    18 N9          -1.9440    -0.8740   -42.2040 N.pl3        1 ADP701   0.0000
    19 C8          -1.5450    -2.1280   -41.9430 C.2          1 ADP701   0.0000
    20 N7          -2.5890    -2.8630   -41.4890 N.2          1 ADP701   0.0000
    21 C5          -3.6820    -2.0720   -41.4670 C.ar         1 ADP701   0.0000
    22 C6          -5.1180    -2.1940   -41.1080 C.ar         1 ADP701   0.0000
    23 N6          -5.6670    -3.3440   -40.6640 N.pl3        1 ADP701   0.0000
    24 N1          -5.8980    -1.1050   -41.2450 N.ar         1 ADP701   0.0000
    25 C2          -5.4150     0.0630   -41.7070 C.ar         1 ADP701   0.0000
    26 N3          -4.1250     0.2490   -42.0480 N.ar         1 ADP701   0.0000
    27 C4          -3.2350    -0.7610   -41.9430 C.ar         1 ADP701   0.0000
    28 H5'1         1.2207    -1.7590   -44.5326 H            1 ADP701   0.0000
    29 H5'2         2.4942    -0.7693   -44.7877 H            1 ADP701   0.0000
    30 H4'          0.9427     0.8108   -44.8129 H            1 ADP701   0.0000
    31 H3'          1.9817     0.9691   -42.4039 H            1 ADP701   0.0000
    32 H5           0.8931     2.9921   -42.2277 H            1 ADP701   0.0000
    33 H2'          0.3483    -0.2651   -41.3378 H            1 ADP701   0.0000
    34 H7           0.4838     2.1418   -40.6313 H            1 ADP701   0.0000
    35 H1'         -1.7017     1.0481   -42.8637 H            1 ADP701   0.0000
    36 H9          -0.6134    -2.4703   -42.0656 H            1 ADP701   0.0000
    37 H10         -6.6397    -3.3777   -40.4344 H            1 ADP701   0.0000
    38 H11         -5.1011    -4.1625   -40.5646 H            1 ADP701   0.0000
    39 H12         -6.0463     0.8327   -41.8021 H            1 ADP701   0.0000
@<TRIPOS>BOND
     1    1    2      ar
     2    1    3      ar
     3    1    4      ar
     4    1    8       1
     5    5    6      ar
     6    5    7      ar
     7    5    8       1
     8    5    9       1
     9    9   10       1
    10   10   11       1
    11   11   12       1
    12   11   13       1
    13   12   17       1
    14   13   14       1
    15   13   15       1
    16   15   16       1
    17   15   17       1
    18   17   18       1
    19   18   19       1
    20   18   27       1
    21   19   20       2
    22   20   21       1
    23   21   22      ar
    24   21   27      ar
    25   22   23       1
    26   22   24      ar
    27   24   25      ar
    28   25   26      ar
    29   26   27      ar
    30   25   39       1
    31   23   38       1
    32   23   37       1
    33   10   28       1
    34   10   29       1
    35   11   30       1
    36   13   31       1
    37   14   32       1
    38   15   33       1
    39   16   34       1
    40   17   35       1
    41   19   36       1
@<TRIPOS>SUBSTRUCTURE
     1 ADP701      1 GROUP             4 E     ADP     0 **** ADP E 701
