@<TRIPOS>MOLECULE
4c4o_NAD_2_ligand
   70    74     1     0     0
SMALL
NO_CHARGES


@<TRIPOS>ATOM
     1 PA         -37.5660    -6.0910     0.8040 P.3          1 NAD1000   0.0000
     2 O1A        -38.8580    -5.6590     0.1570 O.co2        1 NAD1000   0.0000
     3 O2A        -36.3260    -6.4530     0.0550 O.co2        1 NAD1000  -1.0000
     4 O5B        -37.9950    -7.3020     1.7730 O.3          1 NAD1000   0.0000
     5 C5B        -39.1420    -7.2080     2.6460 C.3          1 NAD1000   0.0000
     6 C4B        -39.3150    -8.5380     3.3340 C.3          1 NAD1000   0.0000
     7 O4B        -40.1550    -8.4050     4.4520 O.3          1 NAD1000   0.0000
     8 C3B        -39.9680    -9.5660     2.3600 C.3          1 NAD1000   0.0000
     9 O3B        -39.1890   -10.7650     2.4280 O.3          1 NAD1000   0.0000
    10 C2B        -41.3670    -9.7650     2.9070 C.3          1 NAD1000   0.0000
    11 O2B        -41.8510   -11.0820     2.6930 O.3          1 NAD1000   0.0000
    12 C1B        -41.0790    -9.4870     4.3890 C.3          1 NAD1000   0.0000
    13 N9A        -42.2320    -9.0820     5.1430 N.pl3        1 NAD1000   0.0000
    14 C8A        -43.0150    -8.0490     4.7980 C.2          1 NAD1000   0.0000
    15 N7A        -44.0280    -7.9220     5.6590 N.2          1 NAD1000   0.0000
    16 C5A        -43.8470    -8.8750     6.6320 C.ar         1 NAD1000   0.0000
    17 C6A        -44.5410    -9.1980     7.8770 C.ar         1 NAD1000   0.0000
    18 N6A        -45.6280    -8.4740     8.1740 N.pl3        1 NAD1000   0.0000
    19 N1A        -44.1090   -10.2020     8.6360 N.ar         1 NAD1000   0.0000
    20 C2A        -43.0250   -10.8660     8.2680 C.ar         1 NAD1000   0.0000
    21 N3A        -42.3570   -10.6150     7.1100 N.ar         1 NAD1000   0.0000
    22 C4A        -42.7120    -9.6510     6.2650 C.ar         1 NAD1000   0.0000
    23 O3         -37.3410    -4.8480     1.8650 O.3          1 NAD1000   0.0000
    24 PN         -35.9410    -4.2210     2.3480 P.3          1 NAD1000   0.0000
    25 O1N        -35.2200    -3.5140     1.2600 O.co2        1 NAD1000   0.0000
    26 O2N        -35.1820    -5.4190     2.9330 O.co2        1 NAD1000  -1.0000
    27 O5D        -36.4540    -3.1440     3.4490 O.3          1 NAD1000   0.0000
    28 C5D        -37.0920    -3.4920     4.6850 C.3          1 NAD1000   0.0000
    29 C4D        -37.4640    -2.2470     5.4740 C.3          1 NAD1000   0.0000
    30 O4D        -36.2610    -1.5730     5.8800 O.3          1 NAD1000   0.0000
    31 C3D        -38.2730    -1.2960     4.6020 C.3          1 NAD1000   0.0000
    32 O3D        -39.3750    -0.8210     5.3570 O.3          1 NAD1000   0.0000
    33 C2D        -37.3010    -0.1680     4.3480 C.3          1 NAD1000   0.0000
    34 O2D        -37.9110     1.0870     4.1200 O.3          1 NAD1000   0.0000
    35 C1D        -36.4880    -0.1920     5.6360 C.3          1 NAD1000   0.0000
    36 N1N        -35.1810     0.3780     5.5930 N.ar         1 NAD1000   1.0000
    37 C2N        -34.7510     1.0280     6.6940 C.ar         1 NAD1000   0.0000
    38 C3N        -33.4990     1.6350     6.6920 C.ar         1 NAD1000   0.0000
    39 C7N        -32.9620     2.3850     7.9070 C.2          1 NAD1000   0.0000
    40 O7N        -31.9130     3.0250     7.8530 O.2          1 NAD1000   0.0000
    41 N7N        -33.5760     2.2070     9.0670 N.am         1 NAD1000   0.0000
    42 C4N        -32.6680     1.4550     5.5740 C.ar         1 NAD1000   0.0000
    43 C5N        -33.1150     0.7250     4.4510 C.ar         1 NAD1000   0.0000
    44 C6N        -34.3890     0.1570     4.4940 C.ar         1 NAD1000   0.0000
    45 H5B1       -39.9591    -6.9942     2.1107 H            1 NAD1000   0.0000
    46 H5B2       -38.9924    -6.4909     3.3267 H            1 NAD1000   0.0000
    47 H4B        -38.4220    -8.8791     3.6277 H            1 NAD1000   0.0000
    48 H3B        -39.9953    -9.2084     1.4265 H            1 NAD1000   0.0000
    49 H5         -39.1957   -11.1142     3.3650 H            1 NAD1000   0.0000
    50 H2B        -41.9981    -9.0862     2.5315 H            1 NAD1000   0.0000
    51 H7         -41.2467   -11.7370     3.1466 H            1 NAD1000   0.0000
    52 H1B        -40.6729   -10.2986     4.8089 H            1 NAD1000   0.0000
    53 H8A        -42.8617    -7.4569     4.0069 H            1 NAD1000   0.0000
    54 H6A1       -46.1366    -8.6577     9.0152 H            1 NAD1000   0.0000
    55 H6A2       -45.9310    -7.7498     7.5546 H            1 NAD1000   0.0000
    56 H2A        -42.6806   -11.5865     8.8699 H            1 NAD1000   0.0000
    57 H5D1       -36.4666    -4.0502     5.2302 H            1 NAD1000   0.0000
    58 H5D2       -37.9214    -4.0153     4.4892 H            1 NAD1000   0.0000
    59 H4D        -37.9971    -2.5036     6.2802 H            1 NAD1000   0.0000
    60 H3D        -38.5664    -1.7317     3.7511 H            1 NAD1000   0.0000
    61 H17        -39.9441    -1.5936     5.6384 H            1 NAD1000   0.0000
    62 H2D        -36.7115    -0.4004     3.5744 H            1 NAD1000   0.0000
    63 H19        -37.3336     1.6329     3.5129 H            1 NAD1000   0.0000
    64 H1D        -37.0154     0.2091     6.3850 H            1 NAD1000   0.0000
    65 H2N        -35.3297     1.0734     7.5083 H            1 NAD1000   0.0000
    66 H7N1       -33.2500     2.6834     9.8836 H            1 NAD1000   0.0000
    67 H7N2       -34.3656     1.5962     9.1262 H            1 NAD1000   0.0000
    68 H4N        -31.7487     1.8486     5.5733 H            1 NAD1000   0.0000
    69 H5N        -32.5331     0.6177     3.6449 H            1 NAD1000   0.0000
    70 H6N        -34.7202    -0.4032     3.7347 H            1 NAD1000   0.0000
@<TRIPOS>BOND
     1    1    2      ar
     2    1    3      ar
     3    1    4       1
     4    1   23       1
     5    4    5       1
     6    5    6       1
     7    6    7       1
     8    6    8       1
     9    7   12       1
    10    8    9       1
    11    8   10       1
    12   10   11       1
    13   10   12       1
    14   12   13       1
    15   13   14       1
    16   13   22       1
    17   14   15       2
    18   15   16       1
    19   16   17      ar
    20   16   22      ar
    21   17   18       1
    22   17   19      ar
    23   19   20      ar
    24   20   21      ar
    25   21   22      ar
    26   23   24       1
    27   24   25      ar
    28   24   26      ar
    29   24   27       1
    30   27   28       1
    31   28   29       1
    32   29   30       1
    33   29   31       1
    34   30   35       1
    35   31   32       1
    36   31   33       1
    37   33   34       1
    38   33   35       1
    39   35   36       1
    40   36   37      ar
    41   36   44      ar
    42   37   38      ar
    43   38   39       1
    44   38   42      ar
    45   39   40       2
    46   39   41      am
    47   42   43      ar
    48   43   44      ar
    49   44   70       1
    50    5   45       1
    51    5   46       1
    52    6   47       1
    53    8   48       1
    54    9   49       1
    55   10   50       1
    56   11   51       1
    57   12   52       1
    58   14   53       1
    59   18   54       1
    60   18   55       1
    61   20   56       1
    62   43   69       1
    63   28   57       1
    64   28   58       1
    65   29   59       1
    66   31   60       1
    67   32   61       1
    68   33   62       1
    69   34   63       1
    70   35   64       1
    71   37   65       1
    72   41   66       1
    73   41   67       1
    74   42   68       1
@<TRIPOS>SUBSTRUCTURE
     1 NAD1000     1 GROUP             4 B     NAD     0 **** NAD B1000
