@<TRIPOS>MOLECULE
4tqo_PQQ_1_ligand
   28    30     1     0     0
SMALL
NO_CHARGES


@<TRIPOS>ATOM
     1 N1          -1.3490   -71.4680  -102.9690 N.pl3        1 PQQ702   0.0000
     2 C2          -0.1910   -71.9460  -102.4400 C.2          1 PQQ702   0.0000
     3 C2X         -0.0480   -72.7270  -101.1550 C.2          1 PQQ702   0.0000
     4 O2A          0.7000   -73.7300  -101.0610 O.co2        1 PQQ702   0.0000
     5 O2B         -0.6900   -72.3300  -100.1570 O.co2        1 PQQ702  -1.0000
     6 C3           0.8620   -71.5710  -103.2700 C.2          1 PQQ702   0.0000
     7 C3A          0.2960   -70.8580  -104.3250 C.ar         1 PQQ702   0.0000
     8 C1A         -1.0920   -70.8000  -104.1210 C.ar         1 PQQ702   0.0000
     9 C4           0.9030   -70.2110  -105.5150 C.ar         1 PQQ702   0.0000
    10 O4           2.0990   -70.2580  -105.6700 O.3          1 PQQ702   0.0000
    11 C5           0.0630   -69.5290  -106.4670 C.ar         1 PQQ702   0.0000
    12 O5           0.5380   -68.9900  -107.4510 O.3          1 PQQ702  -1.0000
    13 C6A         -1.4180   -69.4910  -106.2290 C.ar         1 PQQ702   0.0000
    14 N6          -2.1750   -68.8330  -107.1240 N.ar         1 PQQ702   0.0000
    15 C7          -3.5010   -68.7370  -107.0050 C.ar         1 PQQ702   0.0000
    16 C7X         -4.2490   -67.9700  -108.0630 C.2          1 PQQ702   0.0000
    17 O7A         -3.7010   -67.7720  -109.1780 O.co2        1 PQQ702   0.0000
    18 O7B         -5.3900   -67.4980  -107.8060 O.co2        1 PQQ702  -1.0000
    19 C8          -4.1460   -69.3170  -105.9040 C.ar         1 PQQ702   0.0000
    20 C9          -3.4040   -70.0040  -104.9380 C.ar         1 PQQ702   0.0000
    21 C9X         -4.2060   -70.5840  -103.7880 C.2          1 PQQ702   0.0000
    22 O9A         -5.4190   -70.2570  -103.7030 O.co2        1 PQQ702   0.0000
    23 O9B         -3.7080   -71.3540  -102.9220 O.co2        1 PQQ702  -1.0000
    24 C9A         -1.9980   -70.0920  -105.0900 C.ar         1 PQQ702   0.0000
    25 H1          -2.2566   -71.5910  -102.5676 H            1 PQQ702   0.0000
    26 H2           1.8321   -71.7732  -103.1357 H            1 PQQ702   0.0000
    27 H3           2.5171   -69.8251  -106.4686 H            1 PQQ702   0.0000
    28 H4          -5.1385   -69.2394  -105.8091 H            1 PQQ702   0.0000
@<TRIPOS>BOND
     1    1    2       1
     2    1    8       1
     3    2    3       1
     4    2    6       2
     5    3    4      ar
     6    3    5      ar
     7    6    7       1
     8    7    8      ar
     9    7    9      ar
    10    8   24      ar
    11    9   10       1
    12    9   11      ar
    13   11   12       1
    14   11   13      ar
    15   13   14      ar
    16   13   24      ar
    17   14   15      ar
    18   15   16       1
    19   15   19      ar
    20   16   17      ar
    21   16   18      ar
    22   19   20      ar
    23   20   21       1
    24   20   24      ar
    25   21   22      ar
    26   21   23      ar
    27    1   25       1
    28   19   28       1
    29    6   26       1
    30   10   27       1
@<TRIPOS>SUBSTRUCTURE
     1 PQQ702      1 GROUP             4 A     PQQ     0 **** PQQ A 702
