@<TRIPOS>MOLECULE
2jlr_ANP_1_ligand
   44    46     1     0     0
SMALL
NO_CHARGES


@<TRIPOS>ATOM
     1 PG          12.0730     9.0060    27.1110 P.3          1 ANP1620   0.0000
     2 O1G         11.6040     7.9770    28.2560 O.co2        1 ANP1620   0.0000
     3 O2G         10.9650     8.8930    25.9540 O.co2        1 ANP1620  -1.0000
     4 O3G         13.4380     8.7200    26.6080 O.co2        1 ANP1620  -1.0000
     5 PB          12.9050    11.0060    28.9560 P.3          1 ANP1620   0.0000
     6 O1B         14.4190    10.7560    28.5060 O.co2        1 ANP1620   0.0000
     7 O2B         12.5710    10.3700    30.2530 O.co2        1 ANP1620  -1.0000
     8 N3B         11.8880    10.5490    27.6970 N.3          1 ANP1620   0.0000
     9 PA          13.7530    13.6990    28.4820 P.3          1 ANP1620   0.0000
    10 O1A         14.2720    13.2550    27.0260 O.co2        1 ANP1620   0.0000
    11 O2A         14.8560    13.9080    29.4490 O.co2        1 ANP1620  -1.0000
    12 O3A         12.6920    12.6080    29.0170 O.3          1 ANP1620   0.0000
    13 O5'         12.8760    15.0370    28.2570 O.3          1 ANP1620   0.0000
    14 C5'         12.1800    15.5990    29.3740 C.3          1 ANP1620   0.0000
    15 C4'         11.4290    16.8510    28.9450 C.3          1 ANP1620   0.0000
    16 O4'         12.3200    17.7260    28.2100 O.3          1 ANP1620   0.0000
    17 C3'         10.3040    16.4700    27.9910 C.3          1 ANP1620   0.0000
    18 O3'          9.1610    17.2930    28.2610 O.3          1 ANP1620   0.0000
    19 C2'         10.8590    16.8330    26.6420 C.3          1 ANP1620   0.0000
    20 O2'          9.7740    17.1570    25.7630 O.3          1 ANP1620   0.0000
    21 C1'         11.6540    18.0780    26.9810 C.3          1 ANP1620   0.0000
    22 N9          12.7010    18.3620    25.9700 N.pl3        1 ANP1620   0.0000
    23 C8          13.5060    17.4680    25.4020 C.2          1 ANP1620   0.0000
    24 N7          14.3200    18.1170    24.5750 N.2          1 ANP1620   0.0000
    25 C5          14.0380    19.4160    24.6470 C.ar         1 ANP1620   0.0000
    26 C6          14.5700    20.4720    24.0310 C.ar         1 ANP1620   0.0000
    27 N6          15.5640    20.2240    23.1810 N.pl3        1 ANP1620   0.0000
    28 N1          14.1310    21.7190    24.2530 N.ar         1 ANP1620   0.0000
    29 C2          13.0860    21.9130    25.1570 C.ar         1 ANP1620   0.0000
    30 N3          12.5500    20.7890    25.7920 N.ar         1 ANP1620   0.0000
    31 C4          13.0420    19.5690    25.5230 C.ar         1 ANP1620   0.0000
    32 H3B         12.0421    11.1818    26.9382 H            1 ANP1620   0.0000
    33 H5'1        12.8381    15.8364    30.0885 H            1 ANP1620   0.0000
    34 H5'2        11.5291    14.9283    29.7298 H            1 ANP1620   0.0000
    35 H4'         11.0598    17.3247    29.7446 H            1 ANP1620   0.0000
    36 H3'         10.0819    15.4968    28.0503 H            1 ANP1620   0.0000
    37 H6           8.3268    16.7877    28.0403 H            1 ANP1620   0.0000
    38 H2'         11.4391    16.1088    26.2690 H            1 ANP1620   0.0000
    39 H8           9.5763    18.1354    25.8241 H            1 ANP1620   0.0000
    40 H1'         11.0526    18.8666    27.1093 H            1 ANP1620   0.0000
    41 H10         13.4999    16.4819    25.5678 H            1 ANP1620   0.0000
    42 H11         16.0016    20.9772    22.6899 H            1 ANP1620   0.0000
    43 H12         15.8731    19.2845    23.0335 H            1 ANP1620   0.0000
    44 H13         12.7311    22.8288    25.3450 H            1 ANP1620   0.0000
@<TRIPOS>BOND
     1    1    2      ar
     2    1    3      ar
     3    1    4      ar
     4    1    8       1
     5    5    6      ar
     6    5    7      ar
     7    5    8       1
     8    5   12       1
     9    9   10      ar
    10    9   11      ar
    11    9   12       1
    12    9   13       1
    13   13   14       1
    14   14   15       1
    15   15   16       1
    16   15   17       1
    17   16   21       1
    18   17   18       1
    19   17   19       1
    20   19   20       1
    21   19   21       1
    22   21   22       1
    23   22   23       1
    24   22   31       1
    25   23   24       2
    26   24   25       1
    27   25   26      ar
    28   25   31      ar
    29   26   27       1
    30   26   28      ar
    31   28   29      ar
    32   29   30      ar
    33   30   31      ar
    34   29   44       1
    35   27   43       1
    36   27   42       1
    37    8   32       1
    38   23   41       1
    39   14   33       1
    40   14   34       1
    41   15   35       1
    42   17   36       1
    43   18   37       1
    44   19   38       1
    45   20   39       1
    46   21   40       1
@<TRIPOS>SUBSTRUCTURE
     1 ANP1620     1 GROUP             4 A     ANP     0 **** ANP A1620
