@<TRIPOS>MOLECULE
4e9a_QAP_1_ligand
   37    38     1     0     0
SMALL
NO_CHARGES


@<TRIPOS>ATOM
     1 C1          77.9700    89.3110    56.1040 C.3          1 QAP202   0.0000
     2 O1          78.6750    89.4280    53.8080 O.3          1 QAP202   0.0000
     3 C2          76.6160    89.9480    56.0760 C.ar         1 QAP202   0.0000
     4 O2          77.4240    86.7310    47.1340 O.3          1 QAP202   0.0000
     5 C3          78.9530    89.8100    55.0980 C.3          1 QAP202   0.0000
     6 O3          79.1620    87.4960    45.1940 O.3          1 QAP202   0.0000
     7 C4          75.6610    89.5000    55.1790 C.ar         1 QAP202   0.0000
     8 O4          80.1520    90.8680    52.9570 O.2          1 QAP202   0.0000
     9 C5          76.3230    90.9980    56.9320 C.ar         1 QAP202   0.0000
    10 C6          79.2780    89.3150    48.9300 C.ar         1 QAP202   0.0000
    11 C7          74.4130    90.0930    55.1250 C.ar         1 QAP202   0.0000
    12 C8          75.0660    91.5930    56.8870 C.ar         1 QAP202   0.0000
    13 C9          74.1200    91.1340    55.9840 C.ar         1 QAP202   0.0000
    14 C10         78.3500    88.3120    48.6770 C.ar         1 QAP202   0.0000
    15 C11         80.1500    89.7110    47.9220 C.ar         1 QAP202   0.0000
    16 C12         79.3320    89.9920    50.2610 C.2          1 QAP202   0.0000
    17 C13         78.3230    87.7220    47.4180 C.ar         1 QAP202   0.0000
    18 C14         79.3360    89.9800    52.7440 C.2          1 QAP202   0.0000
    19 C15         79.2080    88.1110    46.4250 C.ar         1 QAP202   0.0000
    20 C16         80.1320    89.1100    46.6710 C.ar         1 QAP202   0.0000
    21 C17         79.2650    89.2880    51.4250 C.2          1 QAP202   0.0000
    22 H1          77.8490    88.3300    55.9521 H            1 QAP202   0.0000
    23 H2          78.3597    89.4620    57.0125 H            1 QAP202   0.0000
    24 H3          76.7791    86.4252    47.8344 H            1 QAP202   0.0000
    25 H4          79.8575    89.4599    55.3416 H            1 QAP202   0.0000
    26 H5          78.9612    90.8093    55.1352 H            1 QAP202   0.0000
    27 H6          79.7978    87.7720    44.4731 H            1 QAP202   0.0000
    28 H7          75.8758    88.7407    54.5647 H            1 QAP202   0.0000
    29 H8          77.0115    91.3263    57.5787 H            1 QAP202   0.0000
    30 H9          73.7291    89.7712    54.4702 H            1 QAP202   0.0000
    31 H10         74.8460    92.3488    57.5037 H            1 QAP202   0.0000
    32 H11         73.2162    91.5609    55.9542 H            1 QAP202   0.0000
    33 H12         77.7118    88.0192    49.3890 H            1 QAP202   0.0000
    34 H13         80.8047    90.4451    48.1023 H            1 QAP202   0.0000
    35 H14         79.4196    90.9875    50.2981 H            1 QAP202   0.0000
    36 H15         80.7756    89.3943    45.9604 H            1 QAP202   0.0000
    37 H16         79.1668    88.2933    51.3947 H            1 QAP202   0.0000
@<TRIPOS>BOND
     1    1    3       1
     2    1    5       1
     3    2    5       1
     4    2   18       1
     5    3    7      ar
     6    3    9      ar
     7    4   17       1
     8    6   19       1
     9    7   11      ar
    10    8   18       2
    11    9   12      ar
    12   10   14      ar
    13   10   15      ar
    14   10   16       1
    15   11   13      ar
    16   12   13      ar
    17   14   17      ar
    18   15   20      ar
    19   16   21       2
    20   17   19      ar
    21   18   21       1
    22   19   20      ar
    23    1   22       1
    24    1   23       1
    25    4   24       1
    26    5   25       1
    27    5   26       1
    28    6   27       1
    29    7   28       1
    30    9   29       1
    31   11   30       1
    32   12   31       1
    33   13   32       1
    34   14   33       1
    35   15   34       1
    36   16   35       1
    37   20   36       1
    38   21   37       1
@<TRIPOS>SUBSTRUCTURE
     1 QAP202      1 GROUP             4 A     QAP     0 **** QAP A 202
