@<TRIPOS>MOLECULE
1rpz_ADP_1_ligand
   26    26     1     0     0
SMALL
NO_CHARGES


@<TRIPOS>ATOM
     1 PB          29.5140    55.1860    51.1450 P.3          1 ADP900   0.0000
     2 O1B         28.2780    54.6990    51.8030 O.co2        1 ADP900   0.0000
     3 O2B         30.3750    53.9490    50.6270 O.co2        1 ADP900  -1.0000
     4 O3B         29.1930    56.0960    50.0100 O.co2        1 ADP900  -1.0000
     5 PA          32.0010    56.1920    52.2450 P.3          1 ADP900   0.0000
     6 O1A         32.5540    56.1400    50.8920 O.co2        1 ADP900   0.0000
     7 O2A         32.2810    57.5090    52.8120 O.co2        1 ADP900  -1.0000
     8 O3A         30.4420    55.9210    52.1960 O.3          1 ADP900   0.0000
     9 O5'         32.6990    55.0830    53.1850 O.3          1 ADP900   0.0000
    10 C5'         32.0940    53.9920    53.9180 C.3          1 ADP900   0.0000
    11 C4'         33.2580    53.2030    54.6430 C.3          1 ADP900   0.0000
    12 O4'         34.1800    52.7590    53.6360 O.3          1 ADP900   0.0000
    13 C3'         34.1170    54.0070    55.6590 C.3          1 ADP900   0.0000
    14 O3'         34.2910    53.3090    56.9120 O.3          1 ADP900   0.0000
    15 C2'         35.4580    54.2800    54.9750 C.3          1 ADP900   0.0000
    16 O2'         36.5700    54.3410    55.8860 O.3          1 ADP900   0.0000
    17 C1'         35.5390    53.1880    53.9100 C.3          1 ADP900   0.0000
    18 H5'1        31.6103    53.3843    53.2882 H            1 ADP900   0.0000
    19 H5'2        31.4512    54.3505    54.5950 H            1 ADP900   0.0000
    20 H4'         32.8712    52.4046    55.1044 H            1 ADP900   0.0000
    21 H3'         33.6656    54.8809    55.8392 H            1 ADP900   0.0000
    22 H5          34.8481    53.8651    57.5288 H            1 ADP900   0.0000
    23 H2'         35.3926    55.1620    54.5083 H            1 ADP900   0.0000
    24 H7          37.4103    54.5213    55.3747 H            1 ADP900   0.0000
    25 H1'1        35.9588    53.5506    53.0779 H            1 ADP900   0.0000
    26 H1'2        36.0803    52.4182    54.2483 H            1 ADP900   0.0000
@<TRIPOS>BOND
     1    1    2      ar
     2    1    3      ar
     3    1    4      ar
     4    1    8       1
     5    5    6      ar
     6    5    7      ar
     7    5    8       1
     8    5    9       1
     9    9   10       1
    10   10   11       1
    11   11   12       1
    12   11   13       1
    13   12   17       1
    14   13   14       1
    15   13   15       1
    16   15   16       1
    17   15   17       1
    18   17   26       1
    19   17   25       1
    20   16   24       1
    21   10   18       1
    22   10   19       1
    23   11   20       1
    24   13   21       1
    25   14   22       1
    26   15   23       1
@<TRIPOS>SUBSTRUCTURE
     1 ADP900      1 GROUP             4 A     ADP     0 **** ADP A 900
