@<TRIPOS>MOLECULE
4l2o_NAD_5_ligand
   70    74     1     0     0
SMALL
NO_CHARGES


@<TRIPOS>ATOM
     1 PA         120.7130    12.8990   -37.8970 P.3          1 NAD503   0.0000
     2 O1A        120.8590    12.4830   -36.4530 O.co2        1 NAD503   0.0000
     3 O2A        121.8950    13.4990   -38.6180 O.co2        1 NAD503  -1.0000
     4 O5B        119.4640    13.9100   -38.0030 O.3          1 NAD503   0.0000
     5 C5B        119.3510    14.8580   -39.0630 C.3          1 NAD503   0.0000
     6 C4B        117.9150    14.8360   -39.5700 C.3          1 NAD503   0.0000
     7 O4B        117.0230    15.2790   -38.5440 O.3          1 NAD503   0.0000
     8 C3B        117.7090    15.7550   -40.7660 C.3          1 NAD503   0.0000
     9 O3B        117.0550    15.0050   -41.7940 O.3          1 NAD503   0.0000
    10 C2B        116.8000    16.8580   -40.2570 C.3          1 NAD503   0.0000
    11 O2B        115.8720    17.3080   -41.2480 O.3          1 NAD503   0.0000
    12 C1B        116.0780    16.1920   -39.1020 C.3          1 NAD503   0.0000
    13 N9A        115.6100    17.1820   -38.1030 N.pl3        1 NAD503   0.0000
    14 C8A        116.3690    17.8520   -37.2140 C.2          1 NAD503   0.0000
    15 N7A        115.6060    18.6770   -36.4520 N.2          1 NAD503   0.0000
    16 C5A        114.3290    18.5360   -36.8560 C.ar         1 NAD503   0.0000
    17 C6A        113.0110    19.1080   -36.4820 C.ar         1 NAD503   0.0000
    18 N6A        112.9060    20.0230   -35.4900 N.pl3        1 NAD503   0.0000
    19 N1A        111.9170    18.6840   -37.1610 N.ar         1 NAD503   0.0000
    20 C2A        112.0000    17.7730   -38.1510 C.ar         1 NAD503   0.0000
    21 N3A        113.1610    17.2140   -38.5410 N.ar         1 NAD503   0.0000
    22 C4A        114.3370    17.5480   -37.9460 C.ar         1 NAD503   0.0000
    23 O3         120.2490    11.6220   -38.7580 O.3          1 NAD503   0.0000
    24 PN         118.9070    10.7720   -38.4770 P.3          1 NAD503   0.0000
    25 O1N        118.0470    10.8610   -39.7140 O.co2        1 NAD503   0.0000
    26 O2N        118.3260    11.1320   -37.1340 O.co2        1 NAD503  -1.0000
    27 O5D        119.4820     9.2650   -38.3880 O.3          1 NAD503   0.0000
    28 C5D        120.2870     8.8310   -37.2920 C.3          1 NAD503   0.0000
    29 C4D        119.4150     8.0820   -36.2870 C.3          1 NAD503   0.0000
    30 O4D        118.3890     7.3420   -36.9600 O.3          1 NAD503   0.0000
    31 C3D        120.2270     7.0850   -35.4760 C.3          1 NAD503   0.0000
    32 O3D        119.9460     7.2790   -34.0880 O.3          1 NAD503   0.0000
    33 C2D        119.7260     5.7260   -35.9230 C.3          1 NAD503   0.0000
    34 O2D        119.6990     4.7570   -34.8730 O.3          1 NAD503   0.0000
    35 C1D        118.3260     6.0130   -36.4360 C.3          1 NAD503   0.0000
    36 N1N        117.9330     5.0230   -37.4420 N.ar         1 NAD503   1.0000
    37 C2N        116.9370     4.1700   -37.1450 C.ar         1 NAD503   0.0000
    38 C3N        116.5350     3.2020   -38.0690 C.ar         1 NAD503   0.0000
    39 C7N        115.4210     2.2480   -37.7480 C.2          1 NAD503   0.0000
    40 O7N        114.8910     1.6320   -38.6570 O.2          1 NAD503   0.0000
    41 N7N        115.0210     2.0910   -36.4860 N.am         1 NAD503   0.0000
    42 C4N        117.1740     3.1390   -39.3080 C.ar         1 NAD503   0.0000
    43 C5N        118.2040     4.0310   -39.5890 C.ar         1 NAD503   0.0000
    44 C6N        118.5660     4.9740   -38.6310 C.ar         1 NAD503   0.0000
    45 H5B1       119.9756    14.6128   -39.8045 H            1 NAD503   0.0000
    46 H5B2       119.5768    15.7718   -38.7254 H            1 NAD503   0.0000
    47 H4B        117.6747    13.9010   -39.8309 H            1 NAD503   0.0000
    48 H3B        118.5795    16.1261   -41.0892 H            1 NAD503   0.0000
    49 H5         117.3273    15.3584   -42.6890 H            1 NAD503   0.0000
    50 H2B        117.3460    17.6266   -39.9235 H            1 NAD503   0.0000
    51 H7         116.3732    17.6632   -42.0371 H            1 NAD503   0.0000
    52 H1B        115.2933    15.6813   -39.4535 H            1 NAD503   0.0000
    53 H8A        117.3605    17.7548   -37.1271 H            1 NAD503   0.0000
    54 H6A1       112.0112    20.3992   -35.2495 H            1 NAD503   0.0000
    55 H6A2       113.7232    20.3227   -34.9977 H            1 NAD503   0.0000
    56 H2A        111.1592    17.4993   -38.6180 H            1 NAD503   0.0000
    57 H5D1       120.7013     9.6252   -36.8474 H            1 NAD503   0.0000
    58 H5D2       121.0070     8.2232   -37.6270 H            1 NAD503   0.0000
    59 H4D        118.9904     8.7410   -35.6662 H            1 NAD503   0.0000
    60 H3D        121.2047     7.1848   -35.6608 H            1 NAD503   0.0000
    61 H17        120.4763     6.6268   -33.5462 H            1 NAD503   0.0000
    62 H2D        120.2950     5.3901   -36.6736 H            1 NAD503   0.0000
    63 H19        120.6227     4.6320   -34.5109 H            1 NAD503   0.0000
    64 H1D        117.6801     5.9865   -35.6730 H            1 NAD503   0.0000
    65 H2N        116.4809     4.2287   -36.2570 H            1 NAD503   0.0000
    66 H7N1       114.2790     1.4556   -36.2720 H            1 NAD503   0.0000
    67 H7N2       115.4629     2.6086   -35.7533 H            1 NAD503   0.0000
    68 H4N        116.8945     2.4599   -39.9867 H            1 NAD503   0.0000
    69 H5N        118.6786     3.9952   -40.4685 H            1 NAD503   0.0000
    70 H6N        119.3027     5.6212   -38.8268 H            1 NAD503   0.0000
@<TRIPOS>BOND
     1    1    2      ar
     2    1    3      ar
     3    1    4       1
     4    1   23       1
     5    4    5       1
     6    5    6       1
     7    6    7       1
     8    6    8       1
     9    7   12       1
    10    8    9       1
    11    8   10       1
    12   10   11       1
    13   10   12       1
    14   12   13       1
    15   13   14       1
    16   13   22       1
    17   14   15       2
    18   15   16       1
    19   16   17      ar
    20   16   22      ar
    21   17   18       1
    22   17   19      ar
    23   19   20      ar
    24   20   21      ar
    25   21   22      ar
    26   23   24       1
    27   24   25      ar
    28   24   26      ar
    29   24   27       1
    30   27   28       1
    31   28   29       1
    32   29   30       1
    33   29   31       1
    34   30   35       1
    35   31   32       1
    36   31   33       1
    37   33   34       1
    38   33   35       1
    39   35   36       1
    40   36   37      ar
    41   36   44      ar
    42   37   38      ar
    43   38   39       1
    44   38   42      ar
    45   39   40       2
    46   39   41      am
    47   42   43      ar
    48   43   44      ar
    49   44   70       1
    50    5   45       1
    51    5   46       1
    52    6   47       1
    53    8   48       1
    54    9   49       1
    55   10   50       1
    56   11   51       1
    57   12   52       1
    58   14   53       1
    59   18   54       1
    60   18   55       1
    61   20   56       1
    62   43   69       1
    63   28   57       1
    64   28   58       1
    65   29   59       1
    66   31   60       1
    67   32   61       1
    68   33   62       1
    69   34   63       1
    70   35   64       1
    71   37   65       1
    72   41   66       1
    73   41   67       1
    74   42   68       1
@<TRIPOS>SUBSTRUCTURE
     1 NAD503      1 GROUP             4 E     NAD     0 **** NAD E 503
