@<TRIPOS>MOLECULE
3sqz_COA_1_ligand
   78    80     1     0     0
SMALL
NO_CHARGES


@<TRIPOS>ATOM
     1 N1A         -9.5220   -14.1980   -13.3480 N.ar         1 COA601   0.0000
     2 C2A         -9.8800   -12.9860   -13.8220 C.ar         1 COA601   0.0000
     3 N3A        -10.5250   -12.8820   -15.0420 N.ar         1 COA601   0.0000
     4 C4A        -10.7960   -14.0080   -15.7560 C.ar         1 COA601   0.0000
     5 C5A        -10.4280   -15.2640   -15.2740 C.ar         1 COA601   0.0000
     6 C6A         -9.8020   -15.3640   -14.0890 C.ar         1 COA601   0.0000
     7 N6A         -9.4240   -16.6480   -13.5770 N.pl3        1 COA601   0.0000
     8 N7A        -10.8190   -16.2110   -16.1850 N.2          1 COA601   0.0000
     9 C8A        -11.4090   -15.5880   -17.2100 C.2          1 COA601   0.0000
    10 N9A        -11.3670   -14.1990   -16.9300 N.pl3        1 COA601   0.0000
    11 C1B        -12.0210   -13.1540   -17.7050 C.3          1 COA601   0.0000
    12 C2B        -11.4070   -12.4350   -18.9380 C.2          1 COA601   0.0000
    13 O2B        -10.1100   -12.3420   -19.3210 O.2          1 COA601   0.0000
    14 C3B        -12.5080   -11.4430   -19.2690 C.3          1 COA601   0.0000
    15 O3B        -12.3980   -10.0750   -19.2300 O.3          1 COA601   0.0000
    16 P3B        -11.6570    -9.2700   -20.3210 P.3          1 COA601   0.0000
    17 O7A        -12.5690    -9.1900   -21.6000 O.co2        1 COA601   0.0000
    18 O8A        -11.4650    -7.8550   -19.6890 O.co2        1 COA601  -1.0000
    19 O9A        -10.3350    -9.9220   -20.6320 O.co2        1 COA601  -1.0000
    20 C4B        -13.7220   -12.2030   -18.8930 C.3          1 COA601   0.0000
    21 O4B        -13.3870   -12.6620   -17.5680 O.3          1 COA601   0.0000
    22 C5B        -14.6200   -12.9240   -19.8400 C.3          1 COA601   0.0000
    23 O5B        -13.8500   -14.0030   -20.2970 O.3          1 COA601   0.0000
    24 P1A        -14.4480   -15.0050   -21.3650 P.3          1 COA601   0.0000
    25 O1A        -14.9030   -14.2130   -22.6550 O.co2        1 COA601   0.0000
    26 O2A        -13.4170   -16.0620   -21.7060 O.co2        1 COA601  -1.0000
    27 O3A        -15.7230   -15.6600   -20.6700 O.3          1 COA601   0.0000
    28 P2A        -16.8940   -16.3990   -21.4480 P.3          1 COA601   0.0000
    29 O4A        -16.3450   -17.1540   -22.7150 O.co2        1 COA601   0.0000
    30 O5A        -17.5680   -17.3770   -20.5130 O.co2        1 COA601  -1.0000
    31 O6A        -17.9600   -15.3080   -21.9310 O.3          1 COA601   0.0000
    32 CBP        -19.2760   -13.2670   -21.8580 C.3          1 COA601   0.0000
    33 CCP        -18.1750   -14.1000   -21.2500 C.3          1 COA601   0.0000
    34 CDP        -18.8900   -12.8970   -23.2500 C.3          1 COA601   0.0000
    35 CEP        -19.4920   -12.0080   -21.0530 C.3          1 COA601   0.0000
    36 CAP        -20.5260   -14.1010   -21.8520 C.3          1 COA601   0.0000
    37 OAP        -21.0470   -14.2380   -20.5920 O.3          1 COA601   0.0000
    38 C9P        -21.5740   -13.6020   -22.8270 C.2          1 COA601   0.0000
    39 O9P        -21.4860   -13.7710   -24.0390 O.2          1 COA601   0.0000
    40 N8P        -22.7430   -12.9410   -22.2190 N.am         1 COA601   0.0000
    41 C7P        -23.7360   -12.2680   -23.0340 C.3          1 COA601   0.0000
    42 C6P        -23.2530   -10.9660   -23.6380 C.3          1 COA601   0.0000
    43 C5P        -24.3520   -10.1960   -24.3720 C.2          1 COA601   0.0000
    44 O5P        -25.5210   -10.3800   -24.1220 O.2          1 COA601   0.0000
    45 N4P        -23.9670    -9.1750   -25.3090 N.am         1 COA601   0.0000
    46 C3P        -24.9990    -8.3460   -25.9500 C.3          1 COA601   0.0000
    47 C2P        -25.0530    -6.9020   -25.5360 C.3          1 COA601   0.0000
    48 S1P        -23.5120    -6.0460   -25.4880 S.3          1 COA601   0.0000
    49 H2A         -9.6790   -12.1626   -13.2913 H            1 COA601   0.0000
    50 H6A1        -9.6231   -17.4746   -14.1034 H            1 COA601   0.0000
    51 H6A2        -8.9611   -16.7174   -12.6933 H            1 COA601   0.0000
    52 H8A        -11.8049   -16.0198   -18.0205 H            1 COA601   0.0000
    53 H1B        -11.6769   -12.4458   -17.0885 H            1 COA601   0.0000
    54 H3B        -12.5426   -11.5704   -20.2602 H            1 COA601   0.0000
    55 H4B        -14.3215   -11.4398   -18.6522 H            1 COA601   0.0000
    56 H5B1       -14.8831   -12.3299   -20.6001 H            1 COA601   0.0000
    57 H5B2       -15.4414   -13.2488   -19.3711 H            1 COA601   0.0000
    58 HCP1       -17.3276   -13.5694   -21.2675 H            1 COA601   0.0000
    59 HCP2       -18.4188   -14.3075   -20.3027 H            1 COA601   0.0000
    60 HDP1       -19.6148   -12.3441   -23.6611 H            1 COA601   0.0000
    61 HDP2       -18.0396   -12.3712   -23.2315 H            1 COA601   0.0000
    62 HDP3       -18.7568   -13.7275   -23.7909 H            1 COA601   0.0000
    63 HEP1       -20.2238   -11.4680   -21.4687 H            1 COA601   0.0000
    64 HEP2       -19.7471   -12.2505   -20.1170 H            1 COA601   0.0000
    65 HEP3       -18.6481   -11.4717   -21.0402 H            1 COA601   0.0000
    66 HAP        -20.2627   -15.0166   -22.1559 H            1 COA601   0.0000
    67 H19        -20.3740   -14.6806   -19.9993 H            1 COA601   0.0000
    68 H8P        -22.8534   -12.9570   -21.2252 H            1 COA601   0.0000
    69 H7P1       -24.5332   -12.0735   -22.4625 H            1 COA601   0.0000
    70 H7P2       -24.0009   -12.8813   -23.7781 H            1 COA601   0.0000
    71 H6P1       -22.5202   -11.1697   -24.2872 H            1 COA601   0.0000
    72 H6P2       -22.8967   -10.3882   -22.9037 H            1 COA601   0.0000
    73 H4P        -23.0013    -9.0293   -25.5238 H            1 COA601   0.0000
    74 H3P1       -25.8881    -8.7545   -25.7437 H            1 COA601   0.0000
    75 H3P2       -24.8406    -8.3732   -26.9370 H            1 COA601   0.0000
    76 H2P1       -25.4525    -6.8622   -24.6201 H            1 COA601   0.0000
    77 H2P2       -25.6483    -6.4222   -26.1805 H            1 COA601   0.0000
    78 H1P        -22.8925    -6.4363   -26.1692 H            1 COA601   0.0000
@<TRIPOS>BOND
     1    1    2      ar
     2    1    6      ar
     3    2    3      ar
     4    3    4      ar
     5    4    5      ar
     6    4   10       1
     7    5    6      ar
     8    5    8       1
     9    6    7       1
    10    8    9       2
    11    9   10       1
    12   10   11       1
    13   11   12       1
    14   11   21       1
    15   12   13       2
    16   12   14       1
    17   14   15       1
    18   14   20       1
    19   15   16       1
    20   16   17      ar
    21   16   18      ar
    22   16   19      ar
    23   20   21       1
    24   20   22       1
    25   22   23       1
    26   23   24       1
    27   24   25      ar
    28   24   26      ar
    29   24   27       1
    30   27   28       1
    31   28   29      ar
    32   28   30      ar
    33   28   31       1
    34   31   33       1
    35   32   33       1
    36   32   34       1
    37   32   35       1
    38   32   36       1
    39   36   37       1
    40   36   38       1
    41   38   39       2
    42   38   40      am
    43   40   41       1
    44   41   42       1
    45   42   43       1
    46   43   44       2
    47   43   45      am
    48   45   46       1
    49   46   47       1
    50   47   48       1
    51    2   49       1
    52    7   50       1
    53    7   51       1
    54    9   52       1
    55   11   53       1
    56   14   54       1
    57   48   78       1
    58   47   77       1
    59   20   55       1
    60   22   56       1
    61   22   57       1
    62   47   76       1
    63   46   75       1
    64   33   58       1
    65   33   59       1
    66   34   60       1
    67   34   61       1
    68   34   62       1
    69   35   63       1
    70   35   64       1
    71   35   65       1
    72   36   66       1
    73   37   67       1
    74   40   68       1
    75   41   69       1
    76   41   70       1
    77   42   71       1
    78   42   72       1
    79   45   73       1
    80   46   74       1
@<TRIPOS>SUBSTRUCTURE
     1 COA601      1 GROUP             4 A     COA     0 **** COA A 601
