@<TRIPOS>MOLECULE
4xp1_LDP_1_ligand
   23    23     1     0     0
SMALL
NO_CHARGES


@<TRIPOS>ATOM
     1 C7          -9.1900     2.9910   -26.8180 C.3          1 LDP708   0.0000
     2 C1         -10.3400     3.5770   -26.0270 C.ar         1 LDP708   0.0000
     3 C4         -12.4980     4.6400   -24.6610 C.ar         1 LDP708   0.0000
     4 C2         -10.2010     3.9530   -24.6980 C.ar         1 LDP708   0.0000
     5 C6         -11.5520     3.7360   -26.6700 C.ar         1 LDP708   0.0000
     6 C5         -12.6300     4.2650   -25.9880 C.ar         1 LDP708   0.0000
     7 C3         -11.2860     4.4830   -24.0140 C.ar         1 LDP708   0.0000
     8 O1         -11.1680     4.8700   -22.6660 O.3          1 LDP708   0.0000
     9 O2         -13.6040     5.1790   -23.9760 O.3          1 LDP708   0.0000
    10 C8          -8.2750     2.2140   -25.8960 C.3          1 LDP708   0.0000
    11 N1          -7.3840     1.4100   -26.6670 N.4          1 LDP708   1.0000
    12 H1          -8.6745     3.7303   -27.2511 H            1 LDP708   0.0000
    13 H2          -9.5496     2.3785   -27.5219 H            1 LDP708   0.0000
    14 H3          -9.3217     3.8423   -24.2348 H            1 LDP708   0.0000
    15 H4         -11.6488     3.4683   -27.6286 H            1 LDP708   0.0000
    16 H5         -13.5080     4.3776   -26.4532 H            1 LDP708   0.0000
    17 H6         -11.9562     5.2543   -22.1853 H            1 LDP708   0.0000
    18 H7         -14.4789     5.2893   -24.4476 H            1 LDP708   0.0000
    19 H8          -8.8236     1.6257   -25.3019 H            1 LDP708   0.0000
    20 H9          -7.7466     2.8527   -25.3367 H            1 LDP708   0.0000
    21 H10         -6.7816     0.8986   -26.0542 H            1 LDP708   0.0000
    22 H11         -7.9114     0.7704   -27.2262 H            1 LDP708   0.0000
    23 H12         -6.8344     1.9974   -27.2611 H            1 LDP708   0.0000
@<TRIPOS>BOND
     1    1    2       1
     2    1   10       1
     3    2    4      ar
     4    2    5      ar
     5    3    6      ar
     6    3    7      ar
     7    3    9       1
     8    4    7      ar
     9    5    6      ar
    10    7    8       1
    11   10   11       1
    12    1   12       1
    13    1   13       1
    14    4   14       1
    15    5   15       1
    16    6   16       1
    17    8   17       1
    18    9   18       1
    19   10   19       1
    20   10   20       1
    21   11   21       1
    22   11   22       1
    23   11   23       1
@<TRIPOS>SUBSTRUCTURE
     1 LDP708      1 GROUP             4 A     LDP     0 **** LDP A 708
