@<TRIPOS>MOLECULE
2ohv_NHL_1_ligand
   37    38     1     0     0
SMALL
NO_CHARGES


@<TRIPOS>ATOM
     1 C8          36.2470    32.8940    68.4700 C.ar         1 NHL400   0.0000
     2 C7          34.9780    32.3740    68.0820 C.ar         1 NHL400   0.0000
     3 C3          33.9610    32.1660    69.0540 C.ar         1 NHL400   0.0000
     4 C2          32.6940    31.6490    68.6630 C.ar         1 NHL400   0.0000
     5 C1          31.6820    31.4440    69.6360 C.ar         1 NHL400   0.0000
     6 C6          31.9310    31.7550    71.0100 C.ar         1 NHL400   0.0000
     7 C5          33.2000    32.2750    71.4190 C.ar         1 NHL400   0.0000
     8 C4          34.2260    32.4860    70.4540 C.ar         1 NHL400   0.0000
     9 C10         35.5000    33.0080    70.8410 C.ar         1 NHL400   0.0000
    10 C9          36.5170    33.2200    69.8520 C.ar         1 NHL400   0.0000
    11 C11         37.8870    33.7850    70.2440 C.3          1 NHL400   0.0000
    12 CG          38.0840    35.2250    69.6560 C.3          1 NHL400   0.0000
    13 CD          39.4530    35.3250    68.9520 C.2          1 NHL400   0.0000
    14 OE2         39.5110    35.2990    67.6190 O.co2        1 NHL400   0.0000
    15 OE1         40.5100    35.4340    69.5830 O.co2        1 NHL400  -1.0000
    16 CB          37.9710    36.3020    70.7970 C.3          1 NHL400   0.0000
    17 CA          38.1470    37.7960    70.4170 C.3          1 NHL400   0.0000
    18 N           37.2920    38.1220    69.2290 N.4          1 NHL400   1.0000
    19 C           37.7820    38.6400    71.6250 C.2          1 NHL400   0.0000
    20 OXT         38.5120    38.7260    72.5890 O.co2        1 NHL400   0.0000
    21 O           36.6110    39.2780    71.5890 O.co2        1 NHL400  -1.0000
    22 H1          36.9569    33.0346    67.7799 H            1 NHL400   0.0000
    23 H2          34.8021    32.1545    67.1224 H            1 NHL400   0.0000
    24 H3          32.5172    31.4304    67.7033 H            1 NHL400   0.0000
    25 H4          30.7919    31.0810    69.3605 H            1 NHL400   0.0000
    26 H5          31.2127    31.6079    71.6900 H            1 NHL400   0.0000
    27 H6          33.3662    32.4900    72.3814 H            1 NHL400   0.0000
    28 H7          35.6816    33.2250    71.8001 H            1 NHL400   0.0000
    29 H8          38.6033    33.1847    69.8882 H            1 NHL400   0.0000
    30 H9          37.9516    33.8263    71.2411 H            1 NHL400   0.0000
    31 HG          37.3650    35.3963    68.9825 H            1 NHL400   0.0000
    32 HB1         38.6696    36.0855    71.4790 H            1 NHL400   0.0000
    33 HB2         37.0639    36.2054    71.2068 H            1 NHL400   0.0000
    34 HA          39.1051    37.9610    70.1829 H            1 NHL400   0.0000
    35 H14         37.0124    39.0811    69.2726 H            1 NHL400   0.0000
    36 H15         37.8130    37.9645    68.3901 H            1 NHL400   0.0000
    37 H16         36.4804    37.5378    69.2320 H            1 NHL400   0.0000
@<TRIPOS>BOND
     1    1    2      ar
     2    1   10      ar
     3    2    3      ar
     4    3    4      ar
     5    3    8      ar
     6    4    5      ar
     7    5    6      ar
     8    6    7      ar
     9    7    8      ar
    10    8    9      ar
    11    9   10      ar
    12   10   11       1
    13   11   12       1
    14   12   13       1
    15   12   16       1
    16   13   14      ar
    17   13   15      ar
    18   16   17       1
    19   17   18       1
    20   17   19       1
    21   19   20      ar
    22   19   21      ar
    23    1   22       1
    24    2   23       1
    25    4   24       1
    26    5   25       1
    27    6   26       1
    28    7   27       1
    29    9   28       1
    30   11   29       1
    31   11   30       1
    32   12   31       1
    33   18   37       1
    34   16   32       1
    35   16   33       1
    36   17   34       1
    37   18   35       1
    38   18   36       1
@<TRIPOS>SUBSTRUCTURE
     1 NHL400      1 GROUP             4 A     NHL     0 **** NHL A 400
