@<TRIPOS>MOLECULE
3vi4_ARG_GLY_ASP_ASN_1_ligand
   60    59     4     0     0
SMALL
NO_CHARGES


@<TRIPOS>ATOM
     1 N          -30.7860   -67.3190   -36.5210 N.4          1 ARG5001   1.0000
     2 CA         -30.9880   -66.6170   -37.8250 C.3          1 ARG5001   0.0000
     3 C          -32.4580   -66.6660   -38.2540 C.2          1 ARG5001   0.0000
     4 O          -33.2080   -67.5390   -37.8210 O.2          1 ARG5001   0.0000
     5 CB         -30.1080   -67.2320   -38.9170 C.3          1 ARG5001   0.0000
     6 CG         -28.7070   -67.6240   -38.4780 C.3          1 ARG5001   0.0000
     7 CD         -27.8190   -67.9560   -39.6690 C.3          1 ARG5001   0.0000
     8 NE         -27.0740   -66.7850   -40.1380 N.pl3        1 ARG5001   1.0000
     9 CZ         -26.5440   -66.6520   -41.3540 C.cat        1 ARG5001   0.0000
    10 NH1        -26.6760   -67.6090   -42.2690 N.pl3        1 ARG5001   0.0000
    11 NH2        -25.8860   -65.5430   -41.6630 N.pl3        1 ARG5001   0.0000
    12 H1         -31.3692   -66.9018   -35.8240 H            1 ARG5001   0.0000
    13 H2         -31.0256   -68.2847   -36.6217 H            1 ARG5001   0.0000
    14 HA         -30.7250   -65.6590   -37.7110 H            1 ARG5001   0.0000
    15 HB1        -30.0245   -66.5658   -39.6581 H            1 ARG5001   0.0000
    16 HB2        -30.5663   -68.0532   -39.2571 H            1 ARG5001   0.0000
    17 HG1        -28.7657   -68.4259   -37.8834 H            1 ARG5001   0.0000
    18 HG2        -28.3005   -66.8631   -37.9723 H            1 ARG5001   0.0000
    19 HD1        -28.3922   -68.2947   -40.4152 H            1 ARG5001   0.0000
    20 HD2        -27.1687   -68.6662   -39.3994 H            1 ARG5001   0.0000
    21 HE         -26.9538   -66.0272   -39.4967 H            1 ARG5001   0.0000
    22 HH11       -26.2719   -67.4925   -43.1763 H            1 ARG5001   0.0000
    23 HH12       -27.1793   -68.4447   -42.0494 H            1 ARG5001   0.0000
    24 HH21       -25.4858   -65.4362   -42.5732 H            1 ARG5001   0.0000
    25 HH22       -25.7900   -64.8134   -40.9859 H            1 ARG5001   0.0000
    26 N          -32.8630   -65.7230   -39.1020 N.am         2 GLY5002   0.0000
    27 CA         -34.2320   -65.6660   -39.6190 C.3          2 GLY5002   0.0000
    28 C          -35.2800   -65.4670   -38.5420 C.2          2 GLY5002   0.0000
    29 O          -35.0510   -64.7420   -37.5750 O.2          2 GLY5002   0.0000
    30 H15        -32.2078   -65.0275   -39.3970 H            2 GLY5002   0.0000
    31 HA1        -34.4263   -66.5240   -40.0944 H            2 GLY5002   0.0000
    32 HA2        -34.2944   -64.9054   -40.2652 H            2 GLY5002   0.0000
    33 N          -36.4290   -66.1180   -38.7190 N.am         3 ASP5003   0.0000
    34 CA         -37.5370   -66.0750   -37.7600 C.3          3 ASP5003   0.0000
    35 C          -37.8150   -67.4640   -37.1570 C.2          3 ASP5003   0.0000
    36 O          -38.8070   -68.1200   -37.5030 O.2          3 ASP5003   0.0000
    37 CB         -38.8020   -65.4980   -38.4220 C.3          3 ASP5003   0.0000
    38 CG         -39.9970   -65.4390   -37.4700 C.2          3 ASP5003   0.0000
    39 OD1        -40.0400   -64.5230   -36.6140 O.co2        3 ASP5003   0.0000
    40 OD2        -40.8930   -66.3070   -37.5840 O.co2        3 ASP5003  -1.0000
    41 H18        -36.5414   -66.6643   -39.5490 H            3 ASP5003   0.0000
    42 H19        -37.2742   -65.4631   -37.0140 H            3 ASP5003   0.0000
    43 H20        -39.0443   -66.0735   -39.2031 H            3 ASP5003   0.0000
    44 H21        -38.6014   -64.5714   -38.7402 H            3 ASP5003   0.0000
    45 N          -36.9310   -67.9160   -36.2680 N.am         4 ASN5004   0.0000
    46 CA         -37.1360   -69.1890   -35.5620 C.3          4 ASN5004   0.0000
    47 C          -36.5740   -69.2030   -34.1300 C.2          4 ASN5004   0.0000
    48 O          -35.7370   -68.3740   -33.7600 O.2          4 ASN5004   0.0000
    49 CB         -36.5950   -70.3750   -36.3830 C.3          4 ASN5004   0.0000
    50 CG         -35.0840   -70.5090   -36.3020 C.2          4 ASN5004   0.0000
    51 OD1        -34.3680   -69.5260   -36.1020 O.2          4 ASN5004   0.0000
    52 ND2        -34.5900   -71.7350   -36.4550 N.am         4 ASN5004   0.0000
    53 H22        -36.1103   -67.3774   -36.0770 H            4 ASN5004   0.0000
    54 H23        -38.1244   -69.3194   -35.4847 H            4 ASN5004   0.0000
    55 H24        -36.8931   -69.8978   -33.4855 H            4 ASN5004   0.0000
    56 H25        -36.8530   -70.2446   -37.3403 H            4 ASN5004   0.0000
    57 H26        -37.0091   -71.2173   -36.0380 H            4 ASN5004   0.0000
    58 HD21       -33.6023   -71.8851   -36.4115 H            4 ASN5004   0.0000
    59 HD22       -35.2065   -72.5063   -36.6134 H            4 ASN5004   0.0000
    60 H29        -29.8281   -67.2402   -36.2449 H            4 ASN5004   0.0000
@<TRIPOS>BOND
     1    1    2       1
     2    2    5       1
     3    2    3       1
     4    5    6       1
     5    6    7       1
     6    7    8       1
     7    8    9      ar
     8    9   10      ar
     9    9   11      ar
    10    3    4       2
    11    1   12       1
    12    1   13       1
    13    2   14       1
    14    3   26      am
    15    5   15       1
    16    5   16       1
    17    6   17       1
    18    6   18       1
    19    7   19       1
    20    7   20       1
    21    8   21       1
    22   10   22       1
    23   10   23       1
    24   11   24       1
    25   11   25       1
    26   26   27       1
    27   27   28       1
    28   28   29       2
    29   28   33      am
    30   26   30       1
    31   27   31       1
    32   27   32       1
    33   33   34       1
    34   34   37       1
    35   34   35       1
    36   37   38       1
    37   38   39      ar
    38   38   40      ar
    39   35   36       2
    40   37   44       1
    41   33   41       1
    42   34   42       1
    43   35   45      am
    44   37   43       1
    45   45   46       1
    46   46   49       1
    47   46   47       1
    48   49   50       1
    49   50   51       2
    50   50   52      am
    51   47   48       2
    52   52   59       1
    53   45   53       1
    54   46   54       1
    55   47   55       1
    56   49   56       1
    57   49   57       1
    58   52   58       1
    59    1   60       1
@<TRIPOS>SUBSTRUCTURE
     1 ARG5001     1 RESIDUE           4 G     ARG     0 **** ARG G5001
     2 GLY5002    26 RESIDUE           4 G     GLY     0 **** GLY G5002
     3 ASP5003    33 RESIDUE           4 G     ASP     0 **** ASP G5003
     4 ASN5004    45 RESIDUE           4 G     ASN     0 **** ASN G5004
