@<TRIPOS>MOLECULE
4bk2_FAD_1_ligand
   84    89     1     0     0
SMALL
NO_CHARGES


@<TRIPOS>ATOM
     1 O1P         21.9300     1.3940    10.0590 O.co2        1 FAD500   0.0000
     2 P           22.4130     0.1400    10.8030 P.3          1 FAD500   0.0000
     3 O2P         23.4610    -0.7300    10.1350 O.co2        1 FAD500  -1.0000
     4 O5'         22.9250     0.7460    12.1950 O.3          1 FAD500   0.0000
     5 C5'         23.4350    -0.0990    13.1940 C.3          1 FAD500   0.0000
     6 C4'         23.6380     0.7030    14.4600 C.3          1 FAD500   0.0000
     7 O4'         22.4440     1.3860    14.8240 O.3          1 FAD500   0.0000
     8 C3'         23.9850    -0.2150    15.5990 C.3          1 FAD500   0.0000
     9 O3'         25.2030    -0.8840    15.3170 O.3          1 FAD500   0.0000
    10 C2'         24.1300     0.5550    16.8930 C.3          1 FAD500   0.0000
    11 O2'         22.8330     0.7810    17.4730 O.3          1 FAD500   0.0000
    12 C1'         25.0330    -0.2290    17.8360 C.3          1 FAD500   0.0000
    13 N10         25.0500     0.4140    19.1450 N.pl3        1 FAD500   0.0000
    14 C9A         24.2000     0.0190    20.2060 C.ar         1 FAD500   0.0000
    15 C9          23.2970    -0.9940    20.0070 C.ar         1 FAD500   0.0000
    16 C8          22.4710    -1.3880    21.0460 C.ar         1 FAD500   0.0000
    17 C8M         21.4900    -2.5270    20.8140 C.3          1 FAD500   0.0000
    18 C7          22.5490    -0.7150    22.3860 C.ar         1 FAD500   0.0000
    19 C7M         21.6270    -1.1740    23.5050 C.3          1 FAD500   0.0000
    20 C6          23.4360     0.3300    22.5950 C.ar         1 FAD500   0.0000
    21 C5X         24.2620     0.7170    21.5480 C.ar         1 FAD500   0.0000
    22 N5          25.1230     1.7150    21.7660 N.2          1 FAD500   0.0000
    23 C10         25.9440     1.4680    19.3800 C.2          1 FAD500   0.0000
    24 C4X         25.9190     2.0640    20.7310 C.2          1 FAD500   0.0000
    25 C4          26.8610     3.1300    20.9430 C.2          1 FAD500   0.0000
    26 O4          26.8640     3.6590    22.0580 O.2          1 FAD500   0.0000
    27 N3          27.6350     3.5070    19.9360 N.pl3        1 FAD500   0.0000
    28 C2          27.6540     2.9290    18.7270 C.2          1 FAD500   0.0000
    29 O2          28.4770     3.3880    17.8970 O.2          1 FAD500   0.0000
    30 N1          26.8200     1.9160    18.4400 N.2          1 FAD500   0.0000
    31 O3P         21.1810    -0.8450    11.1040 O.3          1 FAD500   0.0000
    32 PA          19.7990    -0.4820    11.8320 P.3          1 FAD500   0.0000
    33 O1A         20.1170     0.7330    12.6190 O.co2        1 FAD500   0.0000
    34 O2A         19.2970    -1.7670    12.3810 O.co2        1 FAD500  -1.0000
    35 O5B         18.8400     0.0840    10.7270 O.3          1 FAD500   0.0000
    36 C5B         18.5080    -0.7100     9.6040 C.3          1 FAD500   0.0000
    37 C4B         17.2970    -0.0430     8.9680 C.3          1 FAD500   0.0000
    38 C3B         16.1260     0.0530     9.9380 C.3          1 FAD500   0.0000
    39 O3B         15.7580     1.4410     9.9780 O.3          1 FAD500   0.0000
    40 C2B         15.0500    -0.8130     9.3160 C.3          1 FAD500   0.0000
    41 O2B         13.7330    -0.2790     9.3720 O.3          1 FAD500   0.0000
    42 C1B         15.4090    -0.7830     7.8440 C.3          1 FAD500   0.0000
    43 O4B         16.8350    -0.7170     7.7850 O.3          1 FAD500   0.0000
    44 N9A         15.0330    -1.9810     7.0900 N.pl3        1 FAD500   0.0000
    45 C4A         14.7010    -1.9020     5.8140 C.ar         1 FAD500   0.0000
    46 C5A         14.4940    -3.2710     5.3880 C.ar         1 FAD500   0.0000
    47 N7A         14.7600    -4.0520     6.4180 N.2          1 FAD500   0.0000
    48 C8A         15.0740    -3.2720     7.4750 C.2          1 FAD500   0.0000
    49 N3A         14.5260    -0.8770     4.9720 N.ar         1 FAD500   0.0000
    50 C2A         14.1450    -1.1200     3.7190 C.ar         1 FAD500   0.0000
    51 N1A         13.9350    -2.3640     3.2480 N.ar         1 FAD500   0.0000
    52 C6A         14.0780    -3.4610     4.0130 C.ar         1 FAD500   0.0000
    53 N6A         13.8620    -4.6960     3.5290 N.pl3        1 FAD500   0.0000
    54 H5'1        24.3094    -0.4815    12.8955 H            1 FAD500   0.0000
    55 H5'2        22.7881    -0.8416    13.3675 H            1 FAD500   0.0000
    56 H4'         24.3757     1.3644    14.3244 H            1 FAD500   0.0000
    57 H4          21.9202     1.6037    14.0004 H            1 FAD500   0.0000
    58 H3'         23.2577    -0.8933    15.7036 H            1 FAD500   0.0000
    59 H6          25.0100    -1.7385    14.8348 H            1 FAD500   0.0000
    60 H2'         24.5555     1.4386    16.6977 H            1 FAD500   0.0000
    61 H8          22.3931    -0.0977    17.6585 H            1 FAD500   0.0000
    62 H1'1        25.9613    -0.2527    17.4648 H            1 FAD500   0.0000
    63 H1'2        24.6870    -1.1627    17.9284 H            1 FAD500   0.0000
    64 H11         23.2356    -1.4453    19.1168 H            1 FAD500   0.0000
    65 H8M1        20.9683    -2.6932    21.6508 H            1 FAD500   0.0000
    66 H8M2        20.8638    -2.2820    20.0739 H            1 FAD500   0.0000
    67 H8M3        21.9930    -3.3546    20.5648 H            1 FAD500   0.0000
    68 H7M1        21.8023    -0.6300    24.3256 H            1 FAD500   0.0000
    69 H7M2        20.6751    -1.0544    23.2228 H            1 FAD500   0.0000
    70 H7M3        21.7974    -2.1394    23.7024 H            1 FAD500   0.0000
    71 H18         23.4799     0.7944    23.4795 H            1 FAD500   0.0000
    72 H19         28.2506     4.2800    20.0894 H            1 FAD500   0.0000
    73 H5B1        18.2823    -1.6412     9.8904 H            1 FAD500   0.0000
    74 H5B2        19.2708    -0.7356     8.9579 H            1 FAD500   0.0000
    75 H4B         17.5588     0.8868     8.7094 H            1 FAD500   0.0000
    76 H3B         16.3796    -0.2807    10.8459 H            1 FAD500   0.0000
    77 H24         15.4939     1.7424     9.0618 H            1 FAD500   0.0000
    78 H2B         15.0796    -1.7447     9.6779 H            1 FAD500   0.0000
    79 H26         13.7074     0.5963     8.8891 H            1 FAD500   0.0000
    80 H1B         15.0128     0.0281     7.4137 H            1 FAD500   0.0000
    81 H8A         15.2999    -3.5988     8.3927 H            1 FAD500   0.0000
    82 H2A         14.0091    -0.3453     3.1015 H            1 FAD500   0.0000
    83 H6A1        13.5751    -4.8175     2.5788 H            1 FAD500   0.0000
    84 H6A2        13.9882    -5.4934     4.1191 H            1 FAD500   0.0000
@<TRIPOS>BOND
     1    1    2      ar
     2    2    3      ar
     3    2    4       1
     4    2   31       1
     5    4    5       1
     6    5    6       1
     7    6    7       1
     8    6    8       1
     9    8    9       1
    10    8   10       1
    11   10   11       1
    12   10   12       1
    13   12   13       1
    14   13   14       1
    15   13   23       1
    16   14   15      ar
    17   14   21      ar
    18   15   16      ar
    19   16   17       1
    20   16   18      ar
    21   18   19       1
    22   18   20      ar
    23   20   21      ar
    24   21   22       1
    25   22   24       2
    26   23   24       1
    27   23   30       2
    28   24   25       1
    29   25   26       2
    30   25   27       1
    31   27   28       1
    32   28   29       2
    33   28   30       1
    34   31   32       1
    35   32   33      ar
    36   32   34      ar
    37   32   35       1
    38   35   36       1
    39   36   37       1
    40   37   38       1
    41   37   43       1
    42   38   39       1
    43   38   40       1
    44   40   41       1
    45   40   42       1
    46   42   43       1
    47   42   44       1
    48   44   45       1
    49   44   48       1
    50   45   46      ar
    51   45   49      ar
    52   46   47       1
    53   46   52      ar
    54   47   48       2
    55   49   50      ar
    56   50   51      ar
    57   51   52      ar
    58   52   53       1
    59   53   84       1
    60    5   54       1
    61    5   55       1
    62    6   56       1
    63    7   57       1
    64    8   58       1
    65    9   59       1
    66   10   60       1
    67   11   61       1
    68   12   62       1
    69   12   63       1
    70   15   64       1
    71   17   65       1
    72   17   66       1
    73   17   67       1
    74   19   68       1
    75   19   69       1
    76   19   70       1
    77   20   71       1
    78   27   72       1
    79   53   83       1
    80   36   73       1
    81   36   74       1
    82   37   75       1
    83   38   76       1
    84   39   77       1
    85   40   78       1
    86   41   79       1
    87   42   80       1
    88   48   81       1
    89   50   82       1
@<TRIPOS>SUBSTRUCTURE
     1 FAD500      1 GROUP             4 A     FAD     0 **** FAD A 500
