@<TRIPOS>MOLECULE
4y9d_NAI_1_ligand
   39    41     1     0     0
SMALL
NO_CHARGES


@<TRIPOS>ATOM
     1 PA         -12.1170    25.5560   -24.5910 P.3          1 NAI401   0.0000
     2 O1A        -10.6780    25.4000   -24.9510 O.co2        1 NAI401   0.0000
     3 O2A        -12.2360    26.0230   -23.1350 O.co2        1 NAI401  -1.0000
     4 O5B        -12.8910    24.1570   -24.7380 O.3          1 NAI401   0.0000
     5 C5B        -12.6600    23.3320   -25.8410 C.3          1 NAI401   0.0000
     6 C4B        -12.9630    21.9240   -25.7220 C.3          1 NAI401   0.0000
     7 O4B        -12.8620    21.2980   -26.9930 O.3          1 NAI401   0.0000
     8 C3B        -11.9600    21.2710   -24.8340 C.3          1 NAI401   0.0000
     9 O3B        -12.5960    20.5720   -23.8200 O.3          1 NAI401   0.0000
    10 C2B        -11.2520    20.3780   -25.6710 C.3          1 NAI401   0.0000
    11 O2B        -10.9460    19.2290   -25.0040 O.3          1 NAI401   0.0000
    12 C1B        -12.2100    20.0840   -26.7960 C.3          1 NAI401   0.0000
    13 N9A        -11.5220    19.4640   -27.9600 N.pl3        1 NAI401   0.0000
    14 C8A        -10.3890    19.8710   -28.5470 C.2          1 NAI401   0.0000
    15 N7A        -10.0920    19.0380   -29.5530 N.2          1 NAI401   0.0000
    16 C5A        -11.0450    18.0880   -29.6140 C.ar         1 NAI401   0.0000
    17 C6A        -11.2460    16.9910   -30.4350 C.ar         1 NAI401   0.0000
    18 N6A        -10.3170    16.6920   -31.4820 N.pl3        1 NAI401   0.0000
    19 N1A        -12.3240    16.2040   -30.2480 N.ar         1 NAI401   0.0000
    20 C2A        -13.1850    16.4830   -29.2620 C.ar         1 NAI401   0.0000
    21 N3A        -13.0120    17.5300   -28.4550 N.ar         1 NAI401   0.0000
    22 C4A        -11.9520    18.3550   -28.6050 C.ar         1 NAI401   0.0000
    23 O3         -12.6910    26.6240   -25.5070 O.3          1 NAI401   0.0000
    24 PN         -14.1910    27.1530   -25.3520 P.3          1 NAI401   0.0000
    25 O1N        -15.0440    26.0370   -24.9910 O.co2        1 NAI401   0.0000
    26 O2N        -14.6600    27.7060   -26.6350 O.co2        1 NAI401  -1.0000
    27 O5D        -14.2430    28.2780   -24.2280 O.co2        1 NAI401  -1.0000
    28 H5B1       -11.6891    23.4072   -26.0682 H            1 NAI401   0.0000
    29 H5B2       -13.2080    23.6894   -26.5973 H            1 NAI401   0.0000
    30 H4B        -13.8831    21.8007   -25.3503 H            1 NAI401   0.0000
    31 H3B        -11.3389    21.9539   -24.4494 H            1 NAI401   0.0000
    32 H5         -13.1851    19.8690   -24.2184 H            1 NAI401   0.0000
    33 H2B        -10.4217    20.8108   -26.0221 H            1 NAI401   0.0000
    34 H7         -11.6859    18.5670   -25.1236 H            1 NAI401   0.0000
    35 H1B        -12.8846    19.4282   -26.4571 H            1 NAI401   0.0000
    36 H8A         -9.8507    20.6694   -28.2772 H            1 NAI401   0.0000
    37 H6A1       -10.4669    15.8986   -32.0720 H            1 NAI401   0.0000
    38 H6A2        -9.5180    17.2765   -31.6235 H            1 NAI401   0.0000
    39 H2A        -13.9791    15.8904   -29.1270 H            1 NAI401   0.0000
@<TRIPOS>BOND
     1    1    2      ar
     2    1    3      ar
     3    1    4       1
     4    1   23       1
     5    4    5       1
     6    5    6       1
     7    6    7       1
     8    6    8       1
     9    7   12       1
    10    8    9       1
    11    8   10       1
    12   10   11       1
    13   10   12       1
    14   12   13       1
    15   13   14       1
    16   13   22       1
    17   14   15       2
    18   15   16       1
    19   16   17      ar
    20   16   22      ar
    21   17   18       1
    22   17   19      ar
    23   19   20      ar
    24   20   21      ar
    25   21   22      ar
    26   23   24       1
    27   24   25      ar
    28   24   26      ar
    29   24   27      ar
    30   20   39       1
    31    5   28       1
    32    5   29       1
    33    6   30       1
    34    8   31       1
    35    9   32       1
    36   10   33       1
    37   11   34       1
    38   12   35       1
    39   14   36       1
    40   18   37       1
    41   18   38       1
@<TRIPOS>SUBSTRUCTURE
     1 NAI401      1 GROUP             4 A     NAI     0 **** NAI A 401
