@<TRIPOS>MOLECULE
3lxd_FAD_1_ligand
   84    89     1     0     0
SMALL
NO_CHARGES


@<TRIPOS>ATOM
     1 PA          -3.3560   -33.7260    -0.5650 P.3          1 FAD416   0.0000
     2 O1A         -4.5860   -33.3760     0.2290 O.co2        1 FAD416   0.0000
     3 O2A         -2.6310   -34.9160     0.0040 O.co2        1 FAD416  -1.0000
     4 O5B         -2.3570   -32.4740    -0.6500 O.3          1 FAD416   0.0000
     5 C5B         -2.8100   -31.2070    -1.0500 C.3          1 FAD416   0.0000
     6 C4B         -2.0180   -30.1750    -0.2660 C.3          1 FAD416   0.0000
     7 O4B         -1.9070   -28.9870    -1.0230 O.3          1 FAD416   0.0000
     8 C3B         -2.7240   -29.8240     1.0350 C.3          1 FAD416   0.0000
     9 O3B         -1.8080   -29.9170     2.1010 O.3          1 FAD416   0.0000
    10 C2B         -3.1650   -28.3830     0.8540 C.3          1 FAD416   0.0000
    11 O2B         -3.0490   -27.6550     2.0540 O.3          1 FAD416   0.0000
    12 C1B         -2.1870   -27.8850    -0.1950 C.3          1 FAD416   0.0000
    13 N9A         -2.6860   -26.7550    -0.9910 N.pl3        1 FAD416   0.0000
    14 C8A         -3.9650   -26.4990    -1.4220 C.2          1 FAD416   0.0000
    15 N7A         -3.9480   -25.3420    -2.1260 N.2          1 FAD416   0.0000
    16 C5A         -2.6840   -24.8620    -2.1470 C.ar         1 FAD416   0.0000
    17 C6A         -2.1050   -23.7300    -2.7170 C.ar         1 FAD416   0.0000
    18 N6A         -2.8520   -22.8680    -3.3980 N.pl3        1 FAD416   0.0000
    19 N1A         -0.7470   -23.5060    -2.5700 N.ar         1 FAD416   0.0000
    20 C2A          0.0350   -24.3990    -1.8590 C.ar         1 FAD416   0.0000
    21 N3A         -0.5450   -25.5230    -1.2970 N.ar         1 FAD416   0.0000
    22 C4A         -1.8780   -25.7460    -1.4410 C.ar         1 FAD416   0.0000
    23 N1          -7.0990   -42.3330     0.3050 N.2          1 FAD416   0.0000
    24 C2          -6.8570   -43.6910     0.3040 C.2          1 FAD416   0.0000
    25 O2          -6.4330   -44.2280    -0.7160 O.2          1 FAD416   0.0000
    26 N3          -7.0990   -44.4420     1.4410 N.pl3        1 FAD416   0.0000
    27 C4          -7.5790   -43.8390     2.5900 C.2          1 FAD416   0.0000
    28 O4          -7.7880   -44.5090     3.5980 O.2          1 FAD416   0.0000
    29 C4X         -7.8230   -42.4710     2.6010 C.2          1 FAD416   0.0000
    30 N5          -8.3010   -41.8570     3.7450 N.2          1 FAD416   0.0000
    31 C5X         -8.5300   -40.4910     3.7430 C.ar         1 FAD416   0.0000
    32 C6          -9.0090   -39.8770     4.8960 C.ar         1 FAD416   0.0000
    33 C7          -9.2470   -38.5040     4.9180 C.ar         1 FAD416   0.0000
    34 C7M         -9.7660   -37.8930     6.1900 C.3          1 FAD416   0.0000
    35 C8          -9.0030   -37.7350     3.7720 C.ar         1 FAD416   0.0000
    36 C8M         -9.2500   -36.2500     3.7540 C.3          1 FAD416   0.0000
    37 C9          -8.5260   -38.3540     2.6170 C.ar         1 FAD416   0.0000
    38 C9A         -8.2900   -39.7280     2.5940 C.ar         1 FAD416   0.0000
    39 N10         -7.8170   -40.3530     1.4480 N.pl3        1 FAD416   0.0000
    40 C10         -7.5800   -41.7170     1.4470 C.2          1 FAD416   0.0000
    41 C1'         -7.6020   -39.5770     0.1790 C.3          1 FAD416   0.0000
    42 C2'         -6.1190   -39.2900    -0.0020 C.3          1 FAD416   0.0000
    43 O2'         -5.5970   -38.7860     1.2070 O.3          1 FAD416   0.0000
    44 C3'         -5.9530   -38.2870    -1.1310 C.3          1 FAD416   0.0000
    45 O3'         -6.2490   -38.9370    -2.3460 O.3          1 FAD416   0.0000
    46 C4'         -4.5500   -37.6880    -1.2170 C.3          1 FAD416   0.0000
    47 O4'         -4.3390   -36.8470    -0.1040 O.3          1 FAD416   0.0000
    48 C5'         -4.4150   -36.8960    -2.5180 C.3          1 FAD416   0.0000
    49 O5'         -3.1320   -36.3530    -2.6720 O.3          1 FAD416   0.0000
    50 P           -2.9470   -34.8230    -3.1160 P.3          1 FAD416   0.0000
    51 O1P         -3.5350   -34.6140    -4.4920 O.co2        1 FAD416   0.0000
    52 O2P         -1.4940   -34.4270    -3.0480 O.co2        1 FAD416  -1.0000
    53 O3P         -3.8260   -33.9740    -2.0770 O.3          1 FAD416   0.0000
    54 H5B1        -3.7854   -31.1137    -0.8502 H            1 FAD416   0.0000
    55 H5B2        -2.6572   -31.0829    -2.0304 H            1 FAD416   0.0000
    56 H4B         -1.1056   -30.5326    -0.0669 H            1 FAD416   0.0000
    57 H3B         -3.5109   -30.4220     1.1870 H            1 FAD416   0.0000
    58 H5          -1.1195   -30.6106     1.8893 H            1 FAD416   0.0000
    59 H2B         -4.1023   -28.3431     0.5078 H            1 FAD416   0.0000
    60 H7          -2.6968   -28.2530     2.7740 H            1 FAD416   0.0000
    61 H1B         -1.3425   -27.6058     0.2621 H            1 FAD416   0.0000
    62 H8A         -4.7686   -27.0678    -1.2465 H            1 FAD416   0.0000
    63 H6A1        -2.4332   -22.0566    -3.8058 H            1 FAD416   0.0000
    64 H6A2        -3.8331   -23.0305    -3.5029 H            1 FAD416   0.0000
    65 H2A          1.0153   -24.2330    -1.7516 H            1 FAD416   0.0000
    66 H13         -6.9258   -45.4268     1.4320 H            1 FAD416   0.0000
    67 H14         -9.1837   -40.4245     5.7144 H            1 FAD416   0.0000
    68 H7M1        -9.8892   -36.9090     6.0611 H            1 FAD416   0.0000
    69 H7M2       -10.6433   -38.3106     6.4267 H            1 FAD416   0.0000
    70 H7M3        -9.1107   -38.0530     6.9282 H            1 FAD416   0.0000
    71 H8M1        -9.0174   -35.8843     2.8528 H            1 FAD416   0.0000
    72 H8M2       -10.2144   -36.0701     3.9480 H            1 FAD416   0.0000
    73 H8M3        -8.6823   -35.8092     4.4493 H            1 FAD416   0.0000
    74 H21         -8.3516   -37.8075     1.7979 H            1 FAD416   0.0000
    75 H1'1        -8.1040   -38.7135     0.2284 H            1 FAD416   0.0000
    76 H1'2        -7.9342   -40.1118    -0.5979 H            1 FAD416   0.0000
    77 H2'         -5.6444   -40.1375    -0.2397 H            1 FAD416   0.0000
    78 H25         -4.6340   -39.0434     1.2873 H            1 FAD416   0.0000
    79 H3'         -6.6096   -37.5446    -0.9978 H            1 FAD416   0.0000
    80 H27         -6.6211   -38.2747    -2.9963 H            1 FAD416   0.0000
    81 H4'         -3.8745   -38.4253    -1.2071 H            1 FAD416   0.0000
    82 H29         -3.7091   -36.1123    -0.3560 H            1 FAD416   0.0000
    83 H5'1        -5.0823   -36.1512    -2.5132 H            1 FAD416   0.0000
    84 H5'2        -4.6019   -37.5060    -3.2881 H            1 FAD416   0.0000
@<TRIPOS>BOND
     1    1    2      ar
     2    1    3      ar
     3    1    4       1
     4    1   53       1
     5    4    5       1
     6    5    6       1
     7    6    7       1
     8    6    8       1
     9    7   12       1
    10    8    9       1
    11    8   10       1
    12   10   11       1
    13   10   12       1
    14   12   13       1
    15   13   14       1
    16   13   22       1
    17   14   15       2
    18   15   16       1
    19   16   17      ar
    20   16   22      ar
    21   17   18       1
    22   17   19      ar
    23   19   20      ar
    24   20   21      ar
    25   21   22      ar
    26   23   24       1
    27   23   40       2
    28   24   25       2
    29   24   26       1
    30   26   27       1
    31   27   28       2
    32   27   29       1
    33   29   30       2
    34   29   40       1
    35   30   31       1
    36   31   32      ar
    37   31   38      ar
    38   32   33      ar
    39   33   34       1
    40   33   35      ar
    41   35   36       1
    42   35   37      ar
    43   37   38      ar
    44   38   39       1
    45   39   40       1
    46   39   41       1
    47   41   42       1
    48   42   43       1
    49   42   44       1
    50   44   45       1
    51   44   46       1
    52   46   47       1
    53   46   48       1
    54   48   49       1
    55   49   50       1
    56   50   51      ar
    57   50   52      ar
    58   50   53       1
    59   48   84       1
    60    5   54       1
    61    5   55       1
    62    6   56       1
    63    8   57       1
    64    9   58       1
    65   10   59       1
    66   11   60       1
    67   12   61       1
    68   14   62       1
    69   18   63       1
    70   18   64       1
    71   20   65       1
    72   26   66       1
    73   32   67       1
    74   34   68       1
    75   34   69       1
    76   34   70       1
    77   36   71       1
    78   36   72       1
    79   36   73       1
    80   37   74       1
    81   41   75       1
    82   41   76       1
    83   42   77       1
    84   43   78       1
    85   44   79       1
    86   45   80       1
    87   46   81       1
    88   47   82       1
    89   48   83       1
@<TRIPOS>SUBSTRUCTURE
     1 FAD416      1 GROUP             4 A     FAD     0 **** FAD A 416
