@<TRIPOS>MOLECULE
3ea4_FAB_2_ligand
   84    89     1     0     0
SMALL
NO_CHARGES


@<TRIPOS>ATOM
     1 PA          59.4980    70.4090    52.9080 P.3          1 FAB696   0.0000
     2 O1A         60.8800    70.5330    53.4120 O.co2        1 FAB696   0.0000
     3 O2A         59.2100    69.7850    51.5970 O.co2        1 FAB696  -1.0000
     4 O5B         58.8610    71.8730    52.9150 O.3          1 FAB696   0.0000
     5 C5B         59.1650    72.8070    53.9510 C.3          1 FAB696   0.0000
     6 C4B         57.8910    73.4010    54.5920 C.3          1 FAB696   0.0000
     7 O4B         58.2670    74.5060    55.4630 O.3          1 FAB696   0.0000
     8 C3B         56.9530    73.9740    53.5360 C.3          1 FAB696   0.0000
     9 O3B         55.6210    73.7110    53.9650 O.3          1 FAB696   0.0000
    10 C2B         57.2590    75.4760    53.5260 C.3          1 FAB696   0.0000
    11 O2B         56.0600    76.2160    53.2760 O.3          1 FAB696   0.0000
    12 C1B         57.7090    75.7470    54.9580 C.3          1 FAB696   0.0000
    13 N9A         58.7730    76.7710    55.1820 N.pl3        1 FAB696   0.0000
    14 C8A         59.7940    77.1190    54.3950 C.2          1 FAB696   0.0000
    15 N7A         60.5150    78.0730    54.9990 N.2          1 FAB696   0.0000
    16 C5A         59.9470    78.3290    56.1770 C.ar         1 FAB696   0.0000
    17 C6A         60.2570    79.2010    57.2190 C.ar         1 FAB696   0.0000
    18 N6A         61.3580    79.9500    57.1860 N.pl3        1 FAB696   0.0000
    19 N1A         59.4330    79.2910    58.3390 N.ar         1 FAB696   0.0000
    20 C2A         58.1930    78.5040    58.4910 C.ar         1 FAB696   0.0000
    21 N3A         58.0260    77.5130    57.4070 N.ar         1 FAB696   0.0000
    22 C4A         58.8450    77.4970    56.2860 C.ar         1 FAB696   0.0000
    23 N1          60.6010    61.8470    54.3350 N.2          1 FAB696   0.0000
    24 C2          60.5050    61.5390    55.6890 C.2          1 FAB696   0.0000
    25 O2          60.4910    62.4540    56.5100 O.2          1 FAB696   0.0000
    26 N3          60.4260    60.1960    56.1000 N.pl3        1 FAB696   0.0000
    27 C4          60.4500    59.1710    55.1370 C.2          1 FAB696   0.0000
    28 O4          60.3790    58.0000    55.5160 O.2          1 FAB696   0.0000
    29 C4X         60.5440    59.4920    53.7750 C.2          1 FAB696   0.0000
    30 N5          60.5690    58.4940    52.7800 N.2          1 FAB696   0.0000
    31 C5X         61.0520    58.8180    51.4940 C.ar         1 FAB696   0.0000
    32 C6          61.4540    57.8160    50.6050 C.ar         1 FAB696   0.0000
    33 C7          61.9430    58.1510    49.3350 C.ar         1 FAB696   0.0000
    34 C7M         62.3850    57.0280    48.3910 C.3          1 FAB696   0.0000
    35 C8          62.0180    59.4980    48.9470 C.ar         1 FAB696   0.0000
    36 C8M         62.5440    59.9140    47.5660 C.3          1 FAB696   0.0000
    37 C9          61.6100    60.4890    49.8370 C.ar         1 FAB696   0.0000
    38 C9A         61.1180    60.1580    51.1030 C.ar         1 FAB696   0.0000
    39 N10         60.7290    61.1650    52.0190 N.pl3        1 FAB696   0.0000
    40 C10         60.6060    60.8300    53.3800 C.2          1 FAB696   0.0000
    41 C1'         60.5820    62.5800    51.5760 C.3          1 FAB696   0.0000
    42 C2D         59.1570    63.1250    51.6030 C.3          1 FAB696   0.0000
    43 O2'         58.5130    62.7990    50.3760 O.3          1 FAB696   0.0000
    44 C3D         59.1720    64.6480    51.7360 C.3          1 FAB696   0.0000
    45 O3D         60.1920    65.1730    50.8920 O.3          1 FAB696   0.0000
    46 C4D         59.3920    65.1700    53.1750 C.3          1 FAB696   0.0000
    47 O4'         58.7110    64.3730    54.1460 O.3          1 FAB696   0.0000
    48 C5D         58.8580    66.5890    53.2850 C.3          1 FAB696   0.0000
    49 O5'         59.7150    67.3730    54.0740 O.3          1 FAB696   0.0000
    50 P           59.0800    68.5210    55.0060 P.3          1 FAB696   0.0000
    51 O1P         57.8470    67.9920    55.6510 O.co2        1 FAB696   0.0000
    52 O2P         60.1610    69.1290    55.8140 O.co2        1 FAB696  -1.0000
    53 O3P         58.5750    69.6360    53.9490 O.3          1 FAB696   0.0000
    54 H5B1        59.7084    73.5520    53.5640 H            1 FAB696   0.0000
    55 H5B2        59.6950    72.3411    54.6595 H            1 FAB696   0.0000
    56 H4B         57.4172    72.6972    55.1213 H            1 FAB696   0.0000
    57 H3B         57.1288    73.5658    52.6402 H            1 FAB696   0.0000
    58 H5          55.4630    74.1495    54.8497 H            1 FAB696   0.0000
    59 H2B         57.9755    75.7016    52.8658 H            1 FAB696   0.0000
    60 H7          55.6124    76.4288    54.1446 H            1 FAB696   0.0000
    61 H1B         56.9089    75.9879    55.5073 H            1 FAB696   0.0000
    62 H8A         59.9898    76.7286    53.4954 H            1 FAB696   0.0000
    63 H6A1        61.5638    80.5700    57.9431 H            1 FAB696   0.0000
    64 H6A2        61.9787    79.8923    56.4041 H            1 FAB696   0.0000
    65 H2A         57.5420    78.6271    59.2400 H            1 FAB696   0.0000
    66 H13         60.3532    59.9712    57.0717 H            1 FAB696   0.0000
    67 H14         61.3922    56.8557    50.8769 H            1 FAB696   0.0000
    68 H7M1        62.7067    57.4231    47.5305 H            1 FAB696   0.0000
    69 H7M2        63.1254    56.5073    48.8161 H            1 FAB696   0.0000
    70 H7M3        61.6114    56.4206    48.2103 H            1 FAB696   0.0000
    71 H8M1        62.5172    60.9104    47.4854 H            1 FAB696   0.0000
    72 H8M2        63.4860    59.5961    47.4585 H            1 FAB696   0.0000
    73 H8M3        61.9714    59.5065    46.8546 H            1 FAB696   0.0000
    74 H21         61.6699    61.4499    49.5667 H            1 FAB696   0.0000
    75 H1'1        60.9211    62.6471    50.6376 H            1 FAB696   0.0000
    76 H1'2        61.1431    63.1515    52.1749 H            1 FAB696   0.0000
    77 H2D         58.6540    62.7224    52.3678 H            1 FAB696   0.0000
    78 H2'         57.5315    62.6902    50.5333 H            1 FAB696   0.0000
    79 H3D         58.2923    64.9958    51.4116 H            1 FAB696   0.0000
    80 H27         59.9298    66.0865    50.5809 H            1 FAB696   0.0000
    81 H4D         60.3711    65.1705    53.3784 H            1 FAB696   0.0000
    82 H4'         59.3137    63.6375    54.4555 H            1 FAB696   0.0000
    83 H5D1        57.9505    66.5682    53.7045 H            1 FAB696   0.0000
    84 H5D2        58.7936    66.9889    52.3707 H            1 FAB696   0.0000
@<TRIPOS>BOND
     1    1    2      ar
     2    1    3      ar
     3    1    4       1
     4    1   53       1
     5    4    5       1
     6    5    6       1
     7    6    7       1
     8    6    8       1
     9    7   12       1
    10    8    9       1
    11    8   10       1
    12   10   11       1
    13   10   12       1
    14   12   13       1
    15   13   14       1
    16   13   22       1
    17   14   15       2
    18   15   16       1
    19   16   17      ar
    20   16   22      ar
    21   17   18       1
    22   17   19      ar
    23   19   20      ar
    24   20   21      ar
    25   21   22      ar
    26   23   24       1
    27   23   40       2
    28   24   25       2
    29   24   26       1
    30   26   27       1
    31   27   28       2
    32   27   29       1
    33   29   30       2
    34   29   40       1
    35   30   31       1
    36   31   32      ar
    37   31   38      ar
    38   32   33      ar
    39   33   34       1
    40   33   35      ar
    41   35   36       1
    42   35   37      ar
    43   37   38      ar
    44   38   39       1
    45   39   40       1
    46   39   41       1
    47   41   42       1
    48   42   43       1
    49   42   44       1
    50   44   45       1
    51   44   46       1
    52   46   47       1
    53   46   48       1
    54   48   49       1
    55   49   50       1
    56   50   51      ar
    57   50   52      ar
    58   50   53       1
    59   48   84       1
    60    5   54       1
    61    5   55       1
    62    6   56       1
    63    8   57       1
    64    9   58       1
    65   10   59       1
    66   11   60       1
    67   12   61       1
    68   14   62       1
    69   18   63       1
    70   18   64       1
    71   20   65       1
    72   26   66       1
    73   32   67       1
    74   34   68       1
    75   34   69       1
    76   34   70       1
    77   36   71       1
    78   36   72       1
    79   36   73       1
    80   37   74       1
    81   41   75       1
    82   41   76       1
    83   42   77       1
    84   43   78       1
    85   44   79       1
    86   45   80       1
    87   46   81       1
    88   47   82       1
    89   48   83       1
@<TRIPOS>SUBSTRUCTURE
     1 FAB696      1 GROUP             4 A     FAB     0 **** FAB A 696
