@<TRIPOS>MOLECULE
4ynp_SAM_1_ligand
   50    52     1     0     0
SMALL
NO_CHARGES


@<TRIPOS>ATOM
     1 N           11.0720   -11.1280    29.9930 N.4          1 SAM2304   1.0000
     2 CA          10.4050   -10.4020    28.8740 C.3          1 SAM2304   0.0000
     3 C            8.9140   -10.7260    28.8150 C.2          1 SAM2304   0.0000
     4 O            8.2350   -10.4400    27.8240 O.co2        1 SAM2304   0.0000
     5 OXT          8.3530   -11.2830    29.7580 O.co2        1 SAM2304  -1.0000
     6 CB          11.0770   -10.7250    27.5410 C.3          1 SAM2304   0.0000
     7 CG          12.3340    -9.9170    27.2370 C.3          1 SAM2304   0.0000
     8 SD          11.9700    -8.2450    26.6500 S.3          1 SAM2304   1.0000
     9 CE          12.9680    -8.1940    25.1420 C.3          1 SAM2304   0.0000
    10 C5'         12.9830    -7.2090    27.7300 C.3          1 SAM2304   0.0000
    11 C4'         12.3090    -6.9620    29.0700 C.3          1 SAM2304   0.0000
    12 O4'         12.3920    -8.1150    29.8960 O.3          1 SAM2304   0.0000
    13 C3'         12.9660    -5.8340    29.8490 C.3          1 SAM2304   0.0000
    14 O3'         12.3420    -4.5990    29.6080 O.3          1 SAM2304   0.0000
    15 C2'         12.7800    -6.2640    31.2840 C.3          1 SAM2304   0.0000
    16 O2'         11.5340    -5.8190    31.7630 O.3          1 SAM2304   0.0000
    17 C1'         12.7800    -7.7850    31.2170 C.3          1 SAM2304   0.0000
    18 N9          14.1580    -8.2420    31.4890 N.pl3        1 SAM2304   0.0000
    19 C8          15.0240    -8.8020    30.5830 C.2          1 SAM2304   0.0000
    20 N7          16.1870    -9.0780    31.2080 N.2          1 SAM2304   0.0000
    21 C5          16.0840    -8.6970    32.4980 C.ar         1 SAM2304   0.0000
    22 C6          16.9760    -8.7530    33.5580 C.ar         1 SAM2304   0.0000
    23 N6          18.1930    -9.2560    33.3750 N.pl3        1 SAM2304   0.0000
    24 N1          16.5870    -8.2810    34.7970 N.ar         1 SAM2304   0.0000
    25 C2          15.3230    -7.7560    34.9780 C.ar         1 SAM2304   0.0000
    26 N3          14.4410    -7.7040    33.9150 N.ar         1 SAM2304   0.0000
    27 C4          14.8140    -8.1690    32.6940 C.ar         1 SAM2304   0.0000
    28 H1          12.0246   -11.3117    29.7503 H            1 SAM2304   0.0000
    29 H2          11.0410   -10.5666    30.8200 H            1 SAM2304   0.0000
    30 HA          10.5023    -9.4207    29.0400 H            1 SAM2304   0.0000
    31 HB1         10.4151   -10.5543    26.8111 H            1 SAM2304   0.0000
    32 HB2         11.3252   -11.6937    27.5460 H            1 SAM2304   0.0000
    33 HG1         12.8585   -10.3955    26.5327 H            1 SAM2304   0.0000
    34 HG2         12.8803    -9.8503    28.0719 H            1 SAM2304   0.0000
    35 HE1         12.8606    -7.3028    24.7012 H            1 SAM2304   0.0000
    36 HE2         13.9301    -8.3374    25.3740 H            1 SAM2304   0.0000
    37 HE3         12.6649    -8.9136    24.5172 H            1 SAM2304   0.0000
    38 H5'1        13.1409    -6.3299    27.2802 H            1 SAM2304   0.0000
    39 H5'2        13.8589    -7.6650    27.8874 H            1 SAM2304   0.0000
    40 H4'         11.3467    -6.7373    28.9165 H            1 SAM2304   0.0000
    41 H3'         13.9394    -5.7800    29.6265 H            1 SAM2304   0.0000
    42 H15         12.8011    -3.8848    30.1364 H            1 SAM2304   0.0000
    43 H2'         13.5265    -5.9295    31.8592 H            1 SAM2304   0.0000
    44 H17         10.8827    -5.7732    31.0055 H            1 SAM2304   0.0000
    45 H1'         12.1401    -8.1700    31.8820 H            1 SAM2304   0.0000
    46 H19         14.8254    -8.9766    29.6186 H            1 SAM2304   0.0000
    47 H20         18.8372    -9.2969    34.1388 H            1 SAM2304   0.0000
    48 H21         18.4642    -9.5934    32.4736 H            1 SAM2304   0.0000
    49 H22         15.0462    -7.4141    35.8761 H            1 SAM2304   0.0000
    50 H23         10.5977   -11.9926    30.1591 H            1 SAM2304   0.0000
@<TRIPOS>BOND
     1    1    2       1
     2    2    3       1
     3    2    6       1
     4    3    4      ar
     5    3    5      ar
     6    6    7       1
     7    7    8       1
     8    8    9       1
     9    8   10       1
    10   10   11       1
    11   11   12       1
    12   11   13       1
    13   12   17       1
    14   13   14       1
    15   13   15       1
    16   15   16       1
    17   15   17       1
    18   17   18       1
    19   18   19       1
    20   18   27       1
    21   19   20       2
    22   20   21       1
    23   21   22      ar
    24   21   27      ar
    25   22   23       1
    26   22   24      ar
    27   24   25      ar
    28   25   26      ar
    29   26   27      ar
    30    1   28       1
    31    1   29       1
    32    2   30       1
    33    1   50       1
    34    6   31       1
    35    6   32       1
    36    7   33       1
    37    7   34       1
    38    9   35       1
    39    9   36       1
    40    9   37       1
    41   10   38       1
    42   10   39       1
    43   11   40       1
    44   13   41       1
    45   14   42       1
    46   15   43       1
    47   16   44       1
    48   17   45       1
    49   19   46       1
    50   23   47       1
    51   23   48       1
    52   25   49       1
@<TRIPOS>SUBSTRUCTURE
     1 SAM2304     1 GROUP             4 A     SAM     0 **** SAM A2304
