@<TRIPOS>MOLECULE
6gsx_GPS_1_ligand
   61    63     1     0     0
SMALL
NO_CHARGES


@<TRIPOS>ATOM
     1 C1          13.2550    16.6200    26.2550 C.2          1 GPS221   0.0000
     2 N1          14.5790    14.8700    25.0040 N.4          1 GPS221   1.0000
     3 C2          17.0680    16.5940    32.8500 C.2          1 GPS221   0.0000
     4 N2          16.3700    16.6280    30.4850 N.am         1 GPS221   0.0000
     5 O2          17.7370    17.1080    33.7070 O.2          1 GPS221   0.0000
     6 C3          16.7020    13.7300    34.4720 C.2          1 GPS221   0.0000
     7 N3          16.3290    15.5310    32.8820 N.am         1 GPS221   0.0000
     8 O5          21.0430    18.6910    28.6990 O.3          1 GPS221   0.0000
     9 O11         12.3920    16.9410    27.1040 O.co2        1 GPS221   0.0000
    10 O12         13.2580    17.2110    25.0560 O.co2        1 GPS221  -1.0000
    11 O31         17.6020    13.2340    33.7400 O.co2        1 GPS221   0.0000
    12 O32         16.3930    13.0650    35.5920 O.co2        1 GPS221  -1.0000
    13 CA1         14.1640    15.4340    26.4020 C.3          1 GPS221   0.0000
    14 CA2         17.3330    17.1930    31.4150 C.3          1 GPS221   0.0000
    15 CA3         15.9320    14.9780    34.2160 C.3          1 GPS221   0.0000
    16 CA4         19.0890    19.1460    29.8960 C.3          1 GPS221   0.0000
    17 CA5         19.6410    18.9060    28.4790 C.3          1 GPS221   0.0000
    18 CB1         15.5070    15.9460    27.0490 C.3          1 GPS221   0.0000
    19 CB2         17.3380    18.7360    31.4540 C.3          1 GPS221   0.0000
    20 CB4         19.5700    20.4360    30.4920 C.ar         1 GPS221   0.0000
    21 CB5         19.5140    20.2070    27.6540 C.ar         1 GPS221   0.0000
    22 CD1         16.6370    16.0040    29.3390 C.2          1 GPS221   0.0000
    23 CD4         20.0680    21.6590    32.5430 C.ar         1 GPS221   0.0000
    24 CD5         18.9810    21.2170    25.5650 C.ar         1 GPS221   0.0000
    25 OE1         17.7950    15.6810    28.9060 O.2          1 GPS221   0.0000
    26 CE4         20.3350    22.7810    31.7630 C.ar         1 GPS221   0.0000
    27 CE5         19.1900    22.4930    26.1510 C.ar         1 GPS221   0.0000
    28 CG1         15.4370    15.8390    28.4970 C.3          1 GPS221   0.0000
    29 SG2         17.3960    19.3190    29.7540 S.3          1 GPS221   0.0000
    30 CG4         19.6510    20.4790    31.9060 C.ar         1 GPS221   0.0000
    31 CG5         19.2030    20.0550    26.3070 C.ar         1 GPS221   0.0000
    32 CH4         19.9440    21.5670    29.6960 C.ar         1 GPS221   0.0000
    33 CH5         19.7010    21.4520    28.2290 C.ar         1 GPS221   0.0000
    34 CZ4         20.2770    22.7560    30.3610 C.ar         1 GPS221   0.0000
    35 CZ5         19.5690    22.6590    27.4670 C.ar         1 GPS221   0.0000
    36 H1          15.4163    15.3226    24.6972 H            1 GPS221   0.0000
    37 H2          14.7394    13.8856    25.0760 H            1 GPS221   0.0000
    38 H3          15.4049    16.7171    30.7314 H            1 GPS221   0.0000
    39 H4          16.0304    15.0897    32.0358 H            1 GPS221   0.0000
    40 H5          21.4960    18.5237    27.8233 H            1 GPS221   0.0000
    41 HA1         13.7410    14.7241    26.9652 H            1 GPS221   0.0000
    42 HA2         18.2428    16.8949    31.1263 H            1 GPS221   0.0000
    43 HA31        16.1331    15.6485    34.9302 H            1 GPS221   0.0000
    44 HA32        14.9530    14.7740    34.2165 H            1 GPS221   0.0000
    45 HA4         19.3140    18.3775    30.4949 H            1 GPS221   0.0000
    46 HA5         19.2041    18.1273    28.0287 H            1 GPS221   0.0000
    47 HB11        15.6531    16.9020    26.7948 H            1 GPS221   0.0000
    48 HB12        16.2684    15.3916    26.7129 H            1 GPS221   0.0000
    49 HB21        18.1399    19.0623    31.9545 H            1 GPS221   0.0000
    50 HB22        16.5078    19.0690    31.9011 H            1 GPS221   0.0000
    51 HD4         20.1711    21.6928    33.5371 H            1 GPS221   0.0000
    52 HD5         18.6732    21.1499    24.6159 H            1 GPS221   0.0000
    53 HE4         20.5773    23.6373    32.2191 H            1 GPS221   0.0000
    54 HE5         19.0567    23.3068    25.5853 H            1 GPS221   0.0000
    55 HG11        15.0755    14.9281    28.6958 H            1 GPS221   0.0000
    56 HG12        14.7819    16.5311    28.8001 H            1 GPS221   0.0000
    57 HG4         19.4124    19.6730    32.4477 H            1 GPS221   0.0000
    58 HG5         19.1408    19.1498    25.8866 H            1 GPS221   0.0000
    59 HZ4         20.4728    23.5848    29.8369 H            1 GPS221   0.0000
    60 HZ5         19.7402    23.5612    27.8630 H            1 GPS221   0.0000
    61 H26         13.8468    15.0411    24.3448 H            1 GPS221   0.0000
@<TRIPOS>BOND
     1    1    9      ar
     2    1   10      ar
     3    1   13       1
     4    2   13       1
     5    3    5       2
     6    3    7      am
     7    3   14       1
     8    4   14       1
     9    4   22      am
    10    6   11      ar
    11    6   12      ar
    12    6   15       1
    13    7   15       1
    14    8   17       1
    15   13   18       1
    16   14   19       1
    17   16   17       1
    18   16   20       1
    19   16   29       1
    20   17   21       1
    21   18   28       1
    22   19   29       1
    23   20   30      ar
    24   20   32      ar
    25   21   31      ar
    26   21   33      ar
    27   22   25       2
    28   22   28       1
    29   23   26      ar
    30   23   30      ar
    31   24   27      ar
    32   24   31      ar
    33   26   34      ar
    34   27   35      ar
    35   32   33       1
    36   32   34      ar
    37   33   35      ar
    38    2   36       1
    39    2   37       1
    40    4   38       1
    41    7   39       1
    42    8   40       1
    43    2   61       1
    44   35   60       1
    45   13   41       1
    46   14   42       1
    47   15   43       1
    48   15   44       1
    49   16   45       1
    50   17   46       1
    51   18   47       1
    52   18   48       1
    53   19   49       1
    54   19   50       1
    55   23   51       1
    56   24   52       1
    57   26   53       1
    58   27   54       1
    59   28   55       1
    60   28   56       1
    61   30   57       1
    62   31   58       1
    63   34   59       1
@<TRIPOS>SUBSTRUCTURE
     1 GPS221      1 GROUP             4 A     GPS     0 **** GPS A 221
