@<TRIPOS>MOLECULE
2g96_NMN_1_ligand
   36    37     1     0     0
SMALL
NO_CHARGES


@<TRIPOS>ATOM
     1 O3P         14.5180    99.4000    11.4700 O.co2        1 NMN1001   0.0000
     2 P           14.2510    98.4070    10.2970 P.3          1 NMN1001   0.0000
     3 O1P         15.4210    98.3110     9.4380 O.co2        1 NMN1001  -1.0000
     4 O2P         13.0100    98.9020     9.6460 O.co2        1 NMN1001  -1.0000
     5 O5R         14.0450    97.0310    11.0480 O.3          1 NMN1001   0.0000
     6 C5R         13.0620    96.9400    12.1440 C.3          1 NMN1001   0.0000
     7 C4R         12.0460    95.8660    11.8040 C.3          1 NMN1001   0.0000
     8 O4R         11.2480    95.5480    12.9670 O.3          1 NMN1001   0.0000
     9 C3R         11.0130    96.2210    10.6560 C.3          1 NMN1001   0.0000
    10 O3R         10.9520    95.1730     9.6790 O.3          1 NMN1001   0.0000
    11 C2R          9.7070    96.4340    11.3630 C.3          1 NMN1001   0.0000
    12 O2R          8.5570    96.0420    10.5990 O.3          1 NMN1001   0.0000
    13 C1R          9.8320    95.6680    12.6310 C.3          1 NMN1001   0.0000
    14 N1           9.1390    96.3150    13.7680 N.ar         1 NMN1001   1.0000
    15 C2           7.7300    96.2240    13.8300 C.ar         1 NMN1001   0.0000
    16 C3           7.0720    96.8220    14.8830 C.ar         1 NMN1001   0.0000
    17 C7           5.5500    96.7040    14.9150 C.2          1 NMN1001   0.0000
    18 O7           5.0455    96.0974    14.0127 O.2          1 NMN1001   0.0000
    19 N7           4.8470    97.2482    15.8865 N.am         1 NMN1001   0.0000
    20 C4           7.8260    97.5600    15.9430 C.ar         1 NMN1001   0.0000
    21 C5           9.2640    97.6350    15.8490 C.ar         1 NMN1001   0.0000
    22 C6           9.9500    97.0160    14.7620 C.ar         1 NMN1001   0.0000
    23 H5R1        12.5978    97.8191    12.2526 H            1 NMN1001   0.0000
    24 H5R2        13.5295    96.7025    12.9955 H            1 NMN1001   0.0000
    25 H4R         12.5429    95.0418    11.5322 H            1 NMN1001   0.0000
    26 H3R         11.2916    97.0723    10.2115 H            1 NMN1001   0.0000
    27 H5          10.0369    95.1451     9.2768 H            1 NMN1001   0.0000
    28 H2R          9.6227    97.4050    11.5866 H            1 NMN1001   0.0000
    29 H7           7.9617    96.8338    10.4626 H            1 NMN1001   0.0000
    30 H1R          9.4514    94.7531    12.4967 H            1 NMN1001   0.0000
    31 H9           7.2198    95.7346    13.1227 H            1 NMN1001   0.0000
    32 H10          3.8504    97.1661    15.8891 H            1 NMN1001   0.0000
    33 H11          5.3098    97.7436    16.6216 H            1 NMN1001   0.0000
    34 H12          7.3423    97.9937    16.7032 H            1 NMN1001   0.0000
    35 H13          9.7829    98.1239    16.5502 H            1 NMN1001   0.0000
    36 H14         10.9459    97.0599    14.6832 H            1 NMN1001   0.0000
@<TRIPOS>BOND
     1    1    2      ar
     2    2    3      ar
     3    2    4      ar
     4    2    5       1
     5    5    6       1
     6    6    7       1
     7    7    8       1
     8    7    9       1
     9    8   13       1
    10    9   10       1
    11    9   11       1
    12   11   12       1
    13   11   13       1
    14   13   14       1
    15   14   15      ar
    16   14   22      ar
    17   15   16      ar
    18   16   17       1
    19   16   20      ar
    20   17   18       2
    21   17   19      am
    22   20   21      ar
    23   21   22      ar
    24   22   36       1
    25   21   35       1
    26    6   23       1
    27    6   24       1
    28    7   25       1
    29    9   26       1
    30   10   27       1
    31   11   28       1
    32   12   29       1
    33   13   30       1
    34   15   31       1
    35   19   32       1
    36   19   33       1
    37   20   34       1
@<TRIPOS>SUBSTRUCTURE
     1 NMN1001     1 GROUP             4 A     NMN     0 **** NMN A1001
