@<TRIPOS>MOLECULE
4ylg_GDP_1_ligand
   40    42     1     0     0
SMALL
NO_CHARGES


@<TRIPOS>ATOM
     1 PB          48.3200    14.2460    24.0040 P.3          1 GDP201   0.0000
     2 O1B         48.1200    13.5330    22.6830 O.co2        1 GDP201   0.0000
     3 O2B         49.7840    14.3210    24.3580 O.co2        1 GDP201  -1.0000
     4 O3B         47.5660    13.5550    25.1170 O.co2        1 GDP201  -1.0000
     5 O3A         47.8390    15.7910    23.9110 O.3          1 GDP201   0.0000
     6 PA          46.7360    16.3710    22.8990 P.3          1 GDP201   0.0000
     7 O1A         47.3550    16.5870    21.5200 O.co2        1 GDP201   0.0000
     8 O2A         45.5350    15.4730    22.8560 O.co2        1 GDP201  -1.0000
     9 O5'         46.5120    17.8450    23.5240 O.3          1 GDP201   0.0000
    10 C5'         46.0660    18.0720    24.8590 C.3          1 GDP201   0.0000
    11 C4'         45.3990    19.4330    24.9530 C.3          1 GDP201   0.0000
    12 O4'         46.3780    20.4750    24.8870 O.3          1 GDP201   0.0000
    13 C3'         44.4670    19.6390    23.7640 C.3          1 GDP201   0.0000
    14 O3'         43.3410    20.3910    24.2150 O.3          1 GDP201   0.0000
    15 C2'         45.2430    20.4970    22.8040 C.3          1 GDP201   0.0000
    16 O2'         44.4250    21.3080    21.9320 O.3          1 GDP201   0.0000
    17 C1'         46.0720    21.3140    23.7690 C.3          1 GDP201   0.0000
    18 N9          47.3310    21.6980    23.1200 N.pl3        1 GDP201   0.0000
    19 C8          48.1940    20.9050    22.4570 C.2          1 GDP201   0.0000
    20 N7          49.2480    21.6250    22.0090 N.2          1 GDP201   0.0000
    21 C5          49.0650    22.9000    22.4230 C.2          1 GDP201   0.0000
    22 C6          49.7950    24.1740    22.3160 C.2          1 GDP201   0.0000
    23 O6          50.8930    24.2460    21.7010 O.2          1 GDP201   0.0000
    24 N1          49.2360    25.2460    22.9010 N.pl3        1 GDP201   0.0000
    25 C2          48.0630    25.2140    23.5670 C.2          1 GDP201   0.0000
    26 N2          47.5910    26.3540    24.1220 N.pl3        1 GDP201   0.0000
    27 N3          47.3330    24.0800    23.7110 N.2          1 GDP201   0.0000
    28 C4          47.7930    22.9330    23.1550 C.2          1 GDP201   0.0000
    29 H5'1        46.8490    18.0422    25.4804 H            1 GDP201   0.0000
    30 H5'2        45.4099    17.3622    25.1152 H            1 GDP201   0.0000
    31 H4'         44.8835    19.5024    25.8071 H            1 GDP201   0.0000
    32 H3'         44.1935    18.7707    23.3502 H            1 GDP201   0.0000
    33 H5          42.5061    19.8599    24.0709 H            1 GDP201   0.0000
    34 H2'         45.8457    19.9194    22.2534 H            1 GDP201   0.0000
    35 H7          44.9164    22.1473    21.6993 H            1 GDP201   0.0000
    36 H1'         45.5680    22.1251    24.0659 H            1 GDP201   0.0000
    37 H9          48.0729    19.9225    22.3157 H            1 GDP201   0.0000
    38 H10         49.7179    26.1200    22.8393 H            1 GDP201   0.0000
    39 H11         46.7231    26.3462    24.6187 H            1 GDP201   0.0000
    40 H12         48.1100    27.2044    24.0355 H            1 GDP201   0.0000
@<TRIPOS>BOND
     1    1    2      ar
     2    1    3      ar
     3    1    4      ar
     4    1    5       1
     5    5    6       1
     6    6    7      ar
     7    6    8      ar
     8    6    9       1
     9    9   10       1
    10   10   11       1
    11   11   12       1
    12   11   13       1
    13   12   17       1
    14   13   14       1
    15   13   15       1
    16   15   16       1
    17   15   17       1
    18   17   18       1
    19   18   19       1
    20   18   28       1
    21   19   20       2
    22   20   21       1
    23   21   22       1
    24   21   28       2
    25   22   23       2
    26   22   24       1
    27   24   25       1
    28   25   26       1
    29   25   27       2
    30   27   28       1
    31   26   40       1
    32   26   39       1
    33   24   38       1
    34   10   29       1
    35   10   30       1
    36   11   31       1
    37   13   32       1
    38   14   33       1
    39   15   34       1
    40   16   35       1
    41   17   36       1
    42   19   37       1
@<TRIPOS>SUBSTRUCTURE
     1 GDP201      1 GROUP             4 A     GDP     0 **** GDP A 201
