@<TRIPOS>MOLECULE
5hes_032_1_ligand
   48    51     1     0     0
SMALL
NO_CHARGES


@<TRIPOS>ATOM
     1 C10         28.5690    71.5270    -5.7080 C.ar         1 032401   0.0000
     2 C15         26.8860    72.2050     2.7770 C.2          1 032401   0.0000
     3 C17         26.3120    69.9160     1.9600 C.2          1 032401   0.0000
     4 C20         26.1880    68.7280     4.1680 C.ar         1 032401   0.0000
     5 C21         25.5870    68.4590     5.3950 C.ar         1 032401   0.0000
     6 C22         24.3230    68.9480     5.6840 C.ar         1 032401   0.0000
     7 C24         24.3670    70.0400     3.5700 C.ar         1 032401   0.0000
     8 C01         27.9730    72.5170    -1.6180 C.ar         1 032401   0.0000
     9 C02         28.2020    73.8030    -1.1440 C.ar         1 032401   0.0000
    10 N03         27.9760    74.2030     0.0990 N.ar         1 032401   0.0000
    11 C04         27.4660    71.5530    -0.7380 C.ar         1 032401   0.0000
    12 N14         27.2820    73.3990     2.2550 N.pl3        1 032401   0.0000
    13 C16         26.8220    71.2610     1.7910 C.2          1 032401   0.0000
    14 C05         27.2470    71.9280     0.5810 C.ar         1 032401   0.0000
    15 C06         27.5230    73.2560     0.9230 C.ar         1 032401   0.0000
    16 C07         28.2350    72.1890    -3.0310 C.ar         1 032401   0.0000
    17 C18         25.6060    69.5390     3.2370 C.ar         1 032401   0.0000
    18 C23         23.7120    69.7620     4.7580 C.ar         1 032401   0.0000
    19 F25         23.7970    70.9030     2.7120 F            1 032401   0.0000
    20 F26         27.3620    68.1420     3.8940 F            1 032401   0.0000
    21 N27         26.3580    67.7260     6.3290 N.pl3        1 032401  -1.0000
    22 S28         26.0450    67.3550     7.8610 S.o2         1 032401   0.0000
    23 O29         27.1540    66.6220     8.3170 O.2          1 032401   0.0000
    24 O30         24.7510    66.7690     7.9240 O.2          1 032401   0.0000
    25 C31         25.9480    68.9480     8.6250 C.2          1 032401   0.0000
    26 C32         27.1480    69.6740     8.8500 C.2          1 032401   0.0000
    27 C33         26.8540    71.0220     9.5280 C.3          1 032401   0.0000
    28 C08         28.7260    70.9360    -3.4040 C.ar         1 032401   0.0000
    29 C09         28.9140    70.6100    -4.7350 C.ar         1 032401   0.0000
    30 C11         28.0890    72.7720    -5.3790 C.ar         1 032401   0.0000
    31 C12         27.9350    73.1030    -4.0450 C.ar         1 032401   0.0000
    32 CL13        28.6980    71.0750    -7.4060 Cl           1 032401   0.0000
    33 O19         26.3960    69.0400     1.1550 O.2          1 032401   0.0000
    34 H1          26.6733    72.0429     3.7406 H            1 032401   0.0000
    35 H2          23.8669    68.7154     6.5430 H            1 032401   0.0000
    36 H3          28.5641    74.4764    -1.7885 H            1 032401   0.0000
    37 H4          27.2679    70.6237    -1.0496 H            1 032401   0.0000
    38 H5          27.3806    74.2499     2.7710 H            1 032401   0.0000
    39 H6          22.8075    70.1475     4.9404 H            1 032401   0.0000
    40 H7          25.0640    69.3305     8.8937 H            1 032401   0.0000
    41 H8          28.0612    69.3516     8.6009 H            1 032401   0.0000
    42 H9          27.7115    71.5146     9.6762 H            1 032401   0.0000
    43 H10         26.2540    71.5662     8.9416 H            1 032401   0.0000
    44 H11         26.4052    70.8620    10.4072 H            1 032401   0.0000
    45 H12         28.9453    70.2634    -2.6972 H            1 032401   0.0000
    46 H13         29.2951    69.7212    -4.9895 H            1 032401   0.0000
    47 H14         27.8542    73.4298    -6.0946 H            1 032401   0.0000
    48 H15         27.6025    74.0140    -3.8012 H            1 032401   0.0000
@<TRIPOS>BOND
     1    1   29      ar
     2    1   30      ar
     3    1   32       1
     4    2   12       1
     5    2   13       2
     6    3   13       1
     7    3   17       1
     8    3   33       2
     9    4    5      ar
    10    4   17      ar
    11    4   20       1
    12    5    6      ar
    13    5   21       1
    14    6   18      ar
    15    7   17      ar
    16    7   18      ar
    17    7   19       1
    18    8    9      ar
    19    8   11      ar
    20    8   16       1
    21    9   10      ar
    22   10   15      ar
    23   11   14      ar
    24   12   15       1
    25   13   14       1
    26   14   15      ar
    27   16   28      ar
    28   16   31      ar
    29   21   22       1
    30   22   23       2
    31   22   24       2
    32   22   25       1
    33   25   26       2
    34   26   27       1
    35   28   29      ar
    36   30   31      ar
    37    2   34       1
    38    6   35       1
    39    9   36       1
    40   11   37       1
    41   12   38       1
    42   18   39       1
    43   31   48       1
    44   25   40       1
    45   26   41       1
    46   27   42       1
    47   27   43       1
    48   27   44       1
    49   28   45       1
    50   29   46       1
    51   30   47       1
@<TRIPOS>SUBSTRUCTURE
     1 032401      1 GROUP             4 A     032     0 **** 032 A 401
