@<TRIPOS>MOLECULE
3t88_S0N_4_ligand
  103   106     1     0     0
SMALL
NO_CHARGES


@<TRIPOS>ATOM
     1 C01        -20.6950    70.5180   -15.6090 C.3          1 S0N600   0.0000
     2 C02        -20.3660    71.5040   -16.7380 C.3          1 S0N600   0.0000
     3 C03        -19.8920    70.6610   -17.9380 C.3          1 S0N600   0.0000
     4 C04        -19.1850    72.3920   -16.2600 C.3          1 S0N600   0.0000
     5 O05        -19.7860    73.5770   -15.6750 O.3          1 S0N600   0.0000
     6 P06        -18.8730    74.8730   -15.3990 P.3          1 S0N600   0.0000
     7 O07        -17.4630    74.4450   -15.0430 O.co2        1 S0N600   0.0000
     8 O08        -19.4870    75.7690   -14.3250 O.co2        1 S0N600  -1.0000
     9 O09        -18.8100    75.6590   -16.7830 O.3          1 S0N600   0.0000
    10 P10        -20.0380    76.4550   -17.3420 P.3          1 S0N600   0.0000
    11 O11        -19.9430    77.9330   -16.9610 O.co2        1 S0N600   0.0000
    12 O12        -21.3880    75.8360   -16.9530 O.co2        1 S0N600  -1.0000
    13 O13        -19.8780    76.2880   -18.8790 O.3          1 S0N600   0.0000
    14 C14        -18.8520    76.9620   -19.6140 C.3          1 S0N600   0.0000
    15 C15        -19.2910    77.3520   -21.0610 C.3          1 S0N600   0.0000
    16 O16        -19.4620    76.0920   -21.8210 O.3          1 S0N600   0.0000
    17 C17        -20.8890    75.9860   -22.1510 C.3          1 S0N600   0.0000
    18 N18        -21.1440    74.5250   -22.1920 N.pl3        1 S0N600   0.0000
    19 C19        -20.7590    73.5910   -21.2950 C.2          1 S0N600   0.0000
    20 N20        -21.2720    72.3550   -21.7110 N.2          1 S0N600   0.0000
    21 C21        -21.9950    72.5780   -22.8800 C.ar         1 S0N600   0.0000
    22 C22        -22.7200    71.7120   -23.7360 C.ar         1 S0N600   0.0000
    23 N23        -22.7570    70.2860   -23.4540 N.pl3        1 S0N600   0.0000
    24 N24        -23.3430    72.2100   -24.8380 N.ar         1 S0N600   0.0000
    25 C25        -23.2680    73.5320   -25.1410 C.ar         1 S0N600   0.0000
    26 N26        -22.5430    74.4040   -24.2830 N.ar         1 S0N600   0.0000
    27 C27        -21.9280    73.9000   -23.1820 C.ar         1 S0N600   0.0000
    28 C28        -21.6570    76.7840   -21.1120 C.3          1 S0N600   0.0000
    29 O29        -22.9610    77.1390   -21.6860 O.3          1 S0N600   0.0000
    30 C30        -20.7020    77.9900   -21.0330 C.3          1 S0N600   0.0000
    31 O31        -20.8710    78.8140   -22.2100 O.3          1 S0N600   0.0000
    32 P32        -21.4870    80.2630   -22.0750 P.3          1 S0N600   0.0000
    33 O33        -20.9950    80.9860   -23.3220 O.co2        1 S0N600   0.0000
    34 O34        -20.9840    80.9000   -20.7830 O.co2        1 S0N600  -1.0000
    35 O35        -23.0190    80.1550   -22.0620 O.co2        1 S0N600  -1.0000
    36 C36        -21.5510    72.4230   -17.2410 C.3          1 S0N600   0.0000
    37 O37        -20.9620    73.1690   -18.2720 O.3          1 S0N600   0.0000
    38 C38        -22.6430    71.4920   -17.8650 C.2          1 S0N600   0.0000
    39 O39        -23.3490    70.8620   -17.1630 O.2          1 S0N600   0.0000
    40 N40        -22.7920    71.3790   -19.3290 N.am         1 S0N600   0.0000
    41 C41        -23.8360    70.4860   -19.8820 C.3          1 S0N600   0.0000
    42 C42        -23.4880    68.9700   -19.7080 C.3          1 S0N600   0.0000
    43 C43        -24.6650    68.3150   -20.4260 C.2          1 S0N600   0.0000
    44 O44        -25.7530    68.3580   -19.9360 O.2          1 S0N600   0.0000
    45 N45        -24.4280    67.6540   -21.7300 N.am         1 S0N600   0.0000
    46 C46        -25.5000    67.0350   -22.4840 C.3          1 S0N600   0.0000
    47 C47        -25.6080    65.6160   -21.9140 C.3          1 S0N600   0.0000
    48 N48        -26.3020    64.9860   -23.0470 N.am         1 S0N600   0.0000
    49 C49        -25.5780    64.6020   -24.2370 C.2          1 S0N600   0.0000
    50 O50        -24.4010    64.7700   -24.3110 O.2          1 S0N600   0.0000
    51 C51        -26.3640    63.9270   -25.4110 C.3          1 S0N600   0.0000
    52 C52        -25.7010    62.5010   -25.4040 C.3          1 S0N600   0.0000
    53 C53        -26.8270    61.4220   -25.6630 C.2          1 S0N600   0.0000
    54 O54        -27.5670    61.1000   -24.7810 O.2          1 S0N600   0.0000
    55 C55        -26.8890    60.6900   -27.0180 C.ar         1 S0N600   0.0000
    56 C56        -27.3520    59.3480   -27.0060 C.ar         1 S0N600   0.0000
    57 C57        -27.4160    58.6140   -28.2080 C.ar         1 S0N600   0.0000
    58 C58        -27.0130    59.2250   -29.4560 C.ar         1 S0N600   0.0000
    59 C59        -26.5420    60.5670   -29.4750 C.ar         1 S0N600   0.0000
    60 C60        -26.4690    61.2980   -28.2730 C.ar         1 S0N600   0.0000
    61 C61        -26.0290    62.7580   -28.3800 C.2          1 S0N600   0.0000
    62 O62        -26.8890    63.6520   -28.1930 O.co2        1 S0N600   0.0000
    63 O63        -24.8500    63.0570   -28.6780 O.co2        1 S0N600  -1.0000
    64 H1         -21.0086    71.0239   -14.8054 H            1 S0N600   0.0000
    65 H2         -21.4149    69.8932   -15.9113 H            1 S0N600   0.0000
    66 H3         -19.8760    69.9944   -15.3745 H            1 S0N600   0.0000
    67 H4         -19.6654    71.2658   -18.7015 H            1 S0N600   0.0000
    68 H5         -19.0820    70.1357   -17.6772 H            1 S0N600   0.0000
    69 H6         -20.6210    70.0345   -18.2140 H            1 S0N600   0.0000
    70 H7         -18.6038    72.6433   -17.0340 H            1 S0N600   0.0000
    71 H8         -18.6392    71.9062   -15.5773 H            1 S0N600   0.0000
    72 H9         -18.0558    76.3600   -19.6743 H            1 S0N600   0.0000
    73 H10        -18.6029    77.7958   -19.1213 H            1 S0N600   0.0000
    74 H11        -18.6237    77.9559   -21.4969 H            1 S0N600   0.0000
    75 H12        -21.0507    76.3773   -23.0570 H            1 S0N600   0.0000
    76 H13        -20.2055    73.7531   -20.4781 H            1 S0N600   0.0000
    77 H14        -23.2671    69.6706   -24.0549 H            1 S0N600   0.0000
    78 H15        -22.2723    69.9207   -22.6592 H            1 S0N600   0.0000
    79 H16        -23.7183    73.8886   -25.9596 H            1 S0N600   0.0000
    80 H17        -21.7394    76.3011   -20.2402 H            1 S0N600   0.0000
    81 H18        -23.0535    78.1343   -21.7131 H            1 S0N600   0.0000
    82 H19        -20.8477    78.5163   -20.1953 H            1 S0N600   0.0000
    83 H20        -21.9170    73.0033   -16.5134 H            1 S0N600   0.0000
    84 H21        -21.0148    74.1428   -18.0509 H            1 S0N600   0.0000
    85 H22        -22.1953    71.8991   -19.9401 H            1 S0N600   0.0000
    86 H23        -23.9396    70.6806   -20.8574 H            1 S0N600   0.0000
    87 H24        -24.6985    70.6723   -19.4115 H            1 S0N600   0.0000
    88 H25        -23.4556    68.7093   -18.7431 H            1 S0N600   0.0000
    89 H26        -22.6181    68.7407   -20.1447 H            1 S0N600   0.0000
    90 H27        -23.4999    67.6341   -22.1017 H            1 S0N600   0.0000
    91 H28        -25.2758    67.0076   -23.4581 H            1 S0N600   0.0000
    92 H29        -26.3568    67.5337   -22.3531 H            1 S0N600   0.0000
    93 H30        -26.1507    65.5863   -21.0746 H            1 S0N600   0.0000
    94 H31        -24.7111    65.2071   -21.7457 H            1 S0N600   0.0000
    95 H32        -27.2869    64.8213   -22.9933 H            1 S0N600   0.0000
    96 H33        -26.2138    64.4013   -26.2785 H            1 S0N600   0.0000
    97 H34        -27.3449    63.8806   -25.2219 H            1 S0N600   0.0000
    98 H35        -25.2711    62.3334   -24.5168 H            1 S0N600   0.0000
    99 H36        -25.0100    62.4469   -26.1248 H            1 S0N600   0.0000
   100 H37        -27.6327    58.9234   -26.1452 H            1 S0N600   0.0000
   101 H38        -27.7409    57.6683   -28.1980 H            1 S0N600   0.0000
   102 H39        -27.0657    58.7027   -30.3071 H            1 S0N600   0.0000
   103 H40        -26.2640    60.9896   -30.3376 H            1 S0N600   0.0000
@<TRIPOS>BOND
     1    1    2       1
     2    2    3       1
     3    2    4       1
     4    2   36       1
     5    4    5       1
     6    5    6       1
     7    6    7      ar
     8    6    8      ar
     9    6    9       1
    10    9   10       1
    11   10   11      ar
    12   10   12      ar
    13   10   13       1
    14   13   14       1
    15   14   15       1
    16   15   16       1
    17   15   30       1
    18   16   17       1
    19   17   18       1
    20   17   28       1
    21   18   19       1
    22   18   27       1
    23   19   20       2
    24   20   21       1
    25   21   22      ar
    26   21   27      ar
    27   22   23       1
    28   22   24      ar
    29   24   25      ar
    30   25   26      ar
    31   26   27      ar
    32   28   29       1
    33   28   30       1
    34   30   31       1
    35   31   32       1
    36   32   33      ar
    37   32   34      ar
    38   32   35      ar
    39   36   37       1
    40   36   38       1
    41   38   39       2
    42   38   40      am
    43   40   41       1
    44   41   42       1
    45   42   43       1
    46   43   44       2
    47   43   45      am
    48   45   46       1
    49   46   47       1
    50   47   48       1
    51   48   49      am
    52   49   50       2
    53   49   51       1
    54   51   52       1
    55   52   53       1
    56   53   54       2
    57   53   55       1
    58   55   56      ar
    59   55   60      ar
    60   56   57      ar
    61   57   58      ar
    62   58   59      ar
    63   59   60      ar
    64   60   61       1
    65   61   62      ar
    66   61   63      ar
    67    1   64       1
    68    1   65       1
    69    1   66       1
    70    3   67       1
    71    3   68       1
    72    3   69       1
    73    4   70       1
    74    4   71       1
    75   56  100       1
    76   59  103       1
    77   14   72       1
    78   14   73       1
    79   15   74       1
    80   17   75       1
    81   19   76       1
    82   23   77       1
    83   23   78       1
    84   25   79       1
    85   28   80       1
    86   29   81       1
    87   30   82       1
    88   58  102       1
    89   57  101       1
    90   36   83       1
    91   37   84       1
    92   40   85       1
    93   41   86       1
    94   41   87       1
    95   42   88       1
    96   42   89       1
    97   45   90       1
    98   46   91       1
    99   46   92       1
   100   47   93       1
   101   47   94       1
   102   48   95       1
   103   51   96       1
   104   51   97       1
   105   52   98       1
   106   52   99       1
@<TRIPOS>SUBSTRUCTURE
     1 S0N600      1 GROUP             4 D     S0N     0 **** S0N D 600
