@<TRIPOS>MOLECULE
4fk8_FAD_1_ligand
   84    89     1     0     0
SMALL
NO_CHARGES


@<TRIPOS>ATOM
     1 PA         -26.0260    -1.9830    28.0820 P.3          1 FAD301   0.0000
     2 O1A        -25.5280    -3.0520    27.1570 O.co2        1 FAD301   0.0000
     3 O2A        -27.2000    -2.2930    28.9930 O.co2        1 FAD301  -1.0000
     4 O5B        -26.3240    -0.6510    27.2750 O.3          1 FAD301   0.0000
     5 C5B        -26.4350     0.6150    27.9330 C.3          1 FAD301   0.0000
     6 C4B        -26.5510     1.6380    26.8190 C.3          1 FAD301   0.0000
     7 O4B        -25.2660     2.1680    26.4560 O.3          1 FAD301   0.0000
     8 C3B        -27.0870     0.9070    25.6040 C.3          1 FAD301   0.0000
     9 O3B        -28.3870     1.3550    25.2540 O.3          1 FAD301   0.0000
    10 C2B        -26.1430     1.2050    24.4820 C.3          1 FAD301   0.0000
    11 O2B        -26.8440     1.7640    23.3880 O.3          1 FAD301   0.0000
    12 C1B        -25.1080     2.1640    25.0350 C.3          1 FAD301   0.0000
    13 N9A        -23.8030     1.5130    24.7800 N.pl3        1 FAD301   0.0000
    14 C8A        -23.5160     0.2340    25.0980 C.2          1 FAD301   0.0000
    15 N7A        -22.2340    -0.0590    24.7630 N.2          1 FAD301   0.0000
    16 C5A        -21.6920     1.0470    24.2220 C.ar         1 FAD301   0.0000
    17 C6A        -20.3780     1.4180    23.6570 C.ar         1 FAD301   0.0000
    18 N6A        -19.3560     0.5220    23.5990 N.pl3        1 FAD301   0.0000
    19 N1A        -20.2350     2.6770    23.1900 N.ar         1 FAD301   0.0000
    20 C2A        -21.2330     3.5810    23.2380 C.ar         1 FAD301   0.0000
    21 N3A        -22.4640     3.3000    23.7370 N.ar         1 FAD301   0.0000
    22 C4A        -22.7380     2.0760    24.2360 C.ar         1 FAD301   0.0000
    23 N1         -18.6790    -2.5420    23.9670 N.2          1 FAD301   0.0000
    24 C2         -17.4080    -2.3120    24.3350 C.2          1 FAD301   0.0000
    25 O2         -17.2180    -1.5340    25.2810 O.2          1 FAD301   0.0000
    26 N3         -16.3390    -2.8680    23.7140 N.pl3        1 FAD301   0.0000
    27 C4         -16.4950    -3.7050    22.6830 C.2          1 FAD301   0.0000
    28 O4         -15.5180    -4.2180    22.1180 O.2          1 FAD301   0.0000
    29 C4X        -17.8550    -4.0240    22.2120 C.2          1 FAD301   0.0000
    30 N5         -18.0670    -4.8490    21.1630 N.2          1 FAD301   0.0000
    31 C5X        -19.3180    -5.1290    20.7490 C.ar         1 FAD301   0.0000
    32 C6         -19.5130    -5.9830    19.6580 C.ar         1 FAD301   0.0000
    33 C7         -20.7980    -6.2690    19.2310 C.ar         1 FAD301   0.0000
    34 C7M        -21.0250    -7.1920    18.0470 C.3          1 FAD301   0.0000
    35 C8         -21.9600    -5.6690    19.9300 C.ar         1 FAD301   0.0000
    36 C8M        -23.3700    -5.9780    19.4630 C.3          1 FAD301   0.0000
    37 C9         -21.7760    -4.8200    21.0170 C.ar         1 FAD301   0.0000
    38 C9A        -20.4860    -4.5280    21.4580 C.ar         1 FAD301   0.0000
    39 N10        -20.2680    -3.6580    22.5490 N.pl3        1 FAD301   0.0000
    40 C10        -18.9580    -3.3870    22.9450 C.2          1 FAD301   0.0000
    41 C1'        -21.3670    -3.1010    23.3140 C.3          1 FAD301   0.0000
    42 C2'        -21.4590    -4.1350    24.4880 C.3          1 FAD301   0.0000
    43 O2'        -21.9270    -5.4360    24.0770 O.3          1 FAD301   0.0000
    44 C3'        -22.2470    -3.7350    25.7480 C.3          1 FAD301   0.0000
    45 O3'        -23.5380    -3.1720    25.4220 O.3          1 FAD301   0.0000
    46 C4'        -21.4160    -2.7860    26.6230 C.3          1 FAD301   0.0000
    47 O4'        -20.4740    -3.6150    27.3020 O.3          1 FAD301   0.0000
    48 C5'        -22.2660    -2.0950    27.6860 C.3          1 FAD301   0.0000
    49 O5'        -22.9530    -3.1020    28.4630 O.3          1 FAD301   0.0000
    50 P          -23.8160    -2.6070    29.7230 P.3          1 FAD301   0.0000
    51 O1P        -24.5470    -3.8010    30.2250 O.co2        1 FAD301   0.0000
    52 O2P        -22.9030    -1.8110    30.6540 O.co2        1 FAD301  -1.0000
    53 O3P        -24.7960    -1.5120    29.0430 O.3          1 FAD301   0.0000
    54 H5B1       -25.6229     0.7931    28.4886 H            1 FAD301   0.0000
    55 H5B2       -27.2482     0.6371    28.5146 H            1 FAD301   0.0000
    56 H4B        -27.1712     2.3759    27.0850 H            1 FAD301   0.0000
    57 H3B        -27.1037    -0.0771    25.7806 H            1 FAD301   0.0000
    58 H5         -28.3732     1.7251    24.3251 H            1 FAD301   0.0000
    59 H2B        -25.6930     0.3603    24.1924 H            1 FAD301   0.0000
    60 H7         -27.1522     1.0319    22.7805 H            1 FAD301   0.0000
    61 H1B        -25.1714     3.0780    24.6342 H            1 FAD301   0.0000
    62 H8A        -24.1567    -0.4071    25.5205 H            1 FAD301   0.0000
    63 H6A1       -18.4744     0.7934    23.2127 H            1 FAD301   0.0000
    64 H6A2       -19.4863    -0.4080    23.9427 H            1 FAD301   0.0000
    65 H2A        -21.0588     4.5021    22.8898 H            1 FAD301   0.0000
    66 H13        -15.4170    -2.6482    24.0327 H            1 FAD301   0.0000
    67 H14        -18.7269    -6.3852    19.1886 H            1 FAD301   0.0000
    68 H7M1       -22.0066    -7.2850    17.8802 H            1 FAD301   0.0000
    69 H7M2       -20.5840    -6.8081    17.2357 H            1 FAD301   0.0000
    70 H7M3       -20.6339    -8.0908    18.2452 H            1 FAD301   0.0000
    71 H8M1       -24.0264    -5.4941    20.0417 H            1 FAD301   0.0000
    72 H8M2       -23.4796    -5.6810    18.5144 H            1 FAD301   0.0000
    73 H8M3       -23.5334    -6.9626    19.5250 H            1 FAD301   0.0000
    74 H21        -22.5668    -4.4204    21.4806 H            1 FAD301   0.0000
    75 H1'1       -22.2117    -3.0746    22.7794 H            1 FAD301   0.0000
    76 H1'2       -21.1550    -2.1825    23.6479 H            1 FAD301   0.0000
    77 H2'        -20.5176    -4.2747    24.7950 H            1 FAD301   0.0000
    78 H25        -21.1464    -6.0040    23.8162 H            1 FAD301   0.0000
    79 H3'        -22.4081    -4.5676    26.2779 H            1 FAD301   0.0000
    80 H27        -24.1844    -3.3718    26.1584 H            1 FAD301   0.0000
    81 H4'        -20.9443    -2.1099    26.0570 H            1 FAD301   0.0000
    82 H29        -19.8981    -3.0502    27.8931 H            1 FAD301   0.0000
    83 H5'1       -22.9351    -1.4972    27.2445 H            1 FAD301   0.0000
    84 H5'2       -21.6779    -1.5518    28.2853 H            1 FAD301   0.0000
@<TRIPOS>BOND
     1    1    2      ar
     2    1    3      ar
     3    1    4       1
     4    1   53       1
     5    4    5       1
     6    5    6       1
     7    6    7       1
     8    6    8       1
     9    7   12       1
    10    8    9       1
    11    8   10       1
    12   10   11       1
    13   10   12       1
    14   12   13       1
    15   13   14       1
    16   13   22       1
    17   14   15       2
    18   15   16       1
    19   16   17      ar
    20   16   22      ar
    21   17   18       1
    22   17   19      ar
    23   19   20      ar
    24   20   21      ar
    25   21   22      ar
    26   23   24       1
    27   23   40       2
    28   24   25       2
    29   24   26       1
    30   26   27       1
    31   27   28       2
    32   27   29       1
    33   29   30       2
    34   29   40       1
    35   30   31       1
    36   31   32      ar
    37   31   38      ar
    38   32   33      ar
    39   33   34       1
    40   33   35      ar
    41   35   36       1
    42   35   37      ar
    43   37   38      ar
    44   38   39       1
    45   39   40       1
    46   39   41       1
    47   41   42       1
    48   42   43       1
    49   42   44       1
    50   44   45       1
    51   44   46       1
    52   46   47       1
    53   46   48       1
    54   48   49       1
    55   49   50       1
    56   50   51      ar
    57   50   52      ar
    58   50   53       1
    59   48   84       1
    60    5   54       1
    61    5   55       1
    62    6   56       1
    63    8   57       1
    64    9   58       1
    65   10   59       1
    66   11   60       1
    67   12   61       1
    68   14   62       1
    69   18   63       1
    70   18   64       1
    71   20   65       1
    72   26   66       1
    73   32   67       1
    74   34   68       1
    75   34   69       1
    76   34   70       1
    77   36   71       1
    78   36   72       1
    79   36   73       1
    80   37   74       1
    81   41   75       1
    82   41   76       1
    83   42   77       1
    84   43   78       1
    85   44   79       1
    86   45   80       1
    87   46   81       1
    88   47   82       1
    89   48   83       1
@<TRIPOS>SUBSTRUCTURE
     1 FAD301      1 GROUP             4 A     FAD     0 **** FAD A 301
