@<TRIPOS>MOLECULE
5cxx_FER_1_ligand
   23    23     1     0     0
SMALL
NO_CHARGES


@<TRIPOS>ATOM
     1 C4         103.5270    13.2940    15.3160 C.ar         1 FER301   0.0000
     2 C5         104.8760    13.2870    15.7750 C.ar         1 FER301   0.0000
     3 C6         105.1900    13.8990    16.9530 C.ar         1 FER301   0.0000
     4 C3         102.5680    14.0120    16.0540 C.ar         1 FER301   0.0000
     5 C2         102.8580    14.6100    17.2510 C.ar         1 FER301   0.0000
     6 C1         104.1670    14.5770    17.6960 C.ar         1 FER301   0.0000
     7 C10        100.4420    14.8840    16.1420 C.3          1 FER301   0.0000
     8 C7         104.4730    15.2110    19.0100 C.2          1 FER301   0.0000
     9 C8         105.5870    14.9840    19.7270 C.2          1 FER301   0.0000
    10 C9         105.7550    15.7140    21.0580 C.2          1 FER301   0.0000
    11 O1         104.8750    16.5040    21.5250 O.co2        1 FER301   0.0000
    12 O2         106.7980    15.4880    21.7260 O.co2        1 FER301  -1.0000
    13 O4         103.0980    12.7200    14.1580 O.3          1 FER301   0.0000
    14 O3         101.3260    13.9770    15.4920 O.3          1 FER301   0.0000
    15 H1         105.5882    12.8362    15.2368 H            1 FER301   0.0000
    16 H2         106.1287    13.8752    17.2970 H            1 FER301   0.0000
    17 H3         102.1435    15.0580    17.7883 H            1 FER301   0.0000
    18 H4          99.5409    14.8379    15.7109 H            1 FER301   0.0000
    19 H5         100.3624    14.6375    17.1079 H            1 FER301   0.0000
    20 H6         100.8017    15.8138    16.0638 H            1 FER301   0.0000
    21 H7         103.8018    15.8506    19.3846 H            1 FER301   0.0000
    22 H8         106.2887    14.3525    19.3970 H            1 FER301   0.0000
    23 H9         103.7491    12.2508    13.5614 H            1 FER301   0.0000
@<TRIPOS>BOND
     1    1    2      ar
     2    1    4      ar
     3    1   13       1
     4    2    3      ar
     5    3    6      ar
     6    4    5      ar
     7    4   14       1
     8    5    6      ar
     9    6    8       1
    10    7   14       1
    11    8    9       2
    12    9   10       1
    13   10   11      ar
    14   10   12      ar
    15    2   15       1
    16    3   16       1
    17    5   17       1
    18    7   18       1
    19    7   19       1
    20    7   20       1
    21    8   21       1
    22    9   22       1
    23   13   23       1
@<TRIPOS>SUBSTRUCTURE
     1 FER301      1 GROUP             4 A     FER     0 **** FER A 301
