@<TRIPOS>MOLECULE
2g76_NAD_1_ligand
   70    74     1     0     0
SMALL
NO_CHARGES


@<TRIPOS>ATOM
     1 PA          12.1460    33.0660     0.4670 P.3          1 NAD501   0.0000
     2 O1A         11.8530    33.9860    -0.6720 O.co2        1 NAD501   0.0000
     3 O2A         12.8200    33.6390     1.6330 O.co2        1 NAD501  -1.0000
     4 O5B         12.9950    31.8090    -0.0480 O.3          1 NAD501   0.0000
     5 C5B         12.6040    31.1160    -1.2050 C.3          1 NAD501   0.0000
     6 C4B         13.8200    30.4800    -1.8030 C.3          1 NAD501   0.0000
     7 O4B         13.3790    29.5570    -2.7710 O.3          1 NAD501   0.0000
     8 C3B         14.7640    31.4980    -2.4520 C.3          1 NAD501   0.0000
     9 O3B         16.0180    31.5470    -1.7510 O.3          1 NAD501   0.0000
    10 C2B         14.8580    31.0220    -3.8910 C.3          1 NAD501   0.0000
    11 O2B         16.1340    31.1740    -4.5210 O.3          1 NAD501   0.0000
    12 C1B         14.4390    29.5670    -3.7200 C.3          1 NAD501   0.0000
    13 N9A         14.1480    28.9280    -4.9840 N.pl3        1 NAD501   0.0000
    14 C8A         13.5590    29.4610    -6.0910 C.2          1 NAD501   0.0000
    15 N7A         13.5230    28.4890    -7.0210 N.2          1 NAD501   0.0000
    16 C5A         14.0900    27.3670    -6.5420 C.ar         1 NAD501   0.0000
    17 C6A         14.3270    26.1100    -7.0820 C.ar         1 NAD501   0.0000
    18 N6A         13.9630    25.8080    -8.3260 N.pl3        1 NAD501   0.0000
    19 N1A         14.9130    25.1470    -6.2980 N.ar         1 NAD501   0.0000
    20 C2A         15.3190    25.4370    -5.0170 C.ar         1 NAD501   0.0000
    21 N3A         15.0890    26.6810    -4.5050 N.ar         1 NAD501   0.0000
    22 C4A         14.4710    27.6290    -5.2480 C.ar         1 NAD501   0.0000
    23 O3          10.7040    32.4560     0.8330 O.3          1 NAD501   0.0000
    24 PN          10.2310    31.8820     2.2670 P.3          1 NAD501   0.0000
    25 O1N          9.7460    32.9940     3.0930 O.co2        1 NAD501   0.0000
    26 O2N         11.2770    30.9650     2.7660 O.co2        1 NAD501  -1.0000
    27 O5D          8.9470    31.0560     1.7870 O.3          1 NAD501   0.0000
    28 C5D          9.0440    29.7390     1.2780 C.3          1 NAD501   0.0000
    29 C4D          7.6900    29.2470     0.7620 C.3          1 NAD501   0.0000
    30 O4D          6.8200    29.0110     1.8670 O.3          1 NAD501   0.0000
    31 C3D          6.9370    30.2090    -0.1400 C.3          1 NAD501   0.0000
    32 O3D          6.2340    29.4570    -1.0880 O.3          1 NAD501   0.0000
    33 C2D          5.9550    30.9080     0.7910 C.3          1 NAD501   0.0000
    34 O2D          4.8260    31.4440     0.1160 O.3          1 NAD501   0.0000
    35 C1D          5.5810    29.7180     1.6600 C.3          1 NAD501   0.0000
    36 N1N          4.9230    30.0120     2.9460 N.ar         1 NAD501   1.0000
    37 C2N          3.9260    29.1460     3.3080 C.ar         1 NAD501   0.0000
    38 C3N          3.2720    29.3050     4.4990 C.ar         1 NAD501   0.0000
    39 C7N          2.1690    28.3650     4.8640 C.2          1 NAD501   0.0000
    40 O7N          1.2010    28.9100     5.6560 O.2          1 NAD501   0.0000
    41 N7N          2.1290    27.0700     4.5410 N.am         1 NAD501   0.0000
    42 C4N          3.6530    30.3520     5.3380 C.ar         1 NAD501   0.0000
    43 C5N          4.7160    31.2010     4.9830 C.ar         1 NAD501   0.0000
    44 C6N          5.3600    31.0050     3.7750 C.ar         1 NAD501   0.0000
    45 H5B1        12.1983    31.7532    -1.8603 H            1 NAD501   0.0000
    46 H5B2        11.9354    30.4112    -0.9677 H            1 NAD501   0.0000
    47 H4B         14.3151    29.9882    -1.0868 H            1 NAD501   0.0000
    48 H3B         14.3386    32.4027    -2.4308 H            1 NAD501   0.0000
    49 H5          16.4491    30.6450    -1.7756 H            1 NAD501   0.0000
    50 H2B         14.1675    31.4972    -4.4364 H            1 NAD501   0.0000
    51 H7          16.8209    30.6553    -4.0120 H            1 NAD501   0.0000
    52 H1B         15.2107    29.0805    -3.3104 H            1 NAD501   0.0000
    53 H8A         13.2186    30.3957    -6.1929 H            1 NAD501   0.0000
    54 H6A1        14.1447    24.8955    -8.6926 H            1 NAD501   0.0000
    55 H6A2        13.5078    26.4936    -8.8942 H            1 NAD501   0.0000
    56 H2A         15.7792    24.7419    -4.4647 H            1 NAD501   0.0000
    57 H5D1         9.3570    29.1295     2.0064 H            1 NAD501   0.0000
    58 H5D2         9.7039    29.7269     0.5267 H            1 NAD501   0.0000
    59 H4D          7.8266    28.3865     0.2712 H            1 NAD501   0.0000
    60 H3D          7.5559    30.8621    -0.5765 H            1 NAD501   0.0000
    61 H17          6.8779    28.9130    -1.6260 H            1 NAD501   0.0000
    62 H2D          6.4154    31.6128     1.3307 H            1 NAD501   0.0000
    63 H19          4.4974    32.2517     0.6055 H            1 NAD501   0.0000
    64 H1D          4.9729    29.1271     1.1298 H            1 NAD501   0.0000
    65 H2N          3.6748    28.3938     2.6989 H            1 NAD501   0.0000
    66 H7N1         1.3522    26.5077     4.8246 H            1 NAD501   0.0000
    67 H7N2         2.8758    26.6625     4.0155 H            1 NAD501   0.0000
    68 H4N          3.1662    30.5000     6.1989 H            1 NAD501   0.0000
    69 H5N          5.0027    31.9371     5.5961 H            1 NAD501   0.0000
    70 H6N          6.1338    31.5816     3.5127 H            1 NAD501   0.0000
@<TRIPOS>BOND
     1    1    2      ar
     2    1    3      ar
     3    1    4       1
     4    1   23       1
     5    4    5       1
     6    5    6       1
     7    6    7       1
     8    6    8       1
     9    7   12       1
    10    8    9       1
    11    8   10       1
    12   10   11       1
    13   10   12       1
    14   12   13       1
    15   13   14       1
    16   13   22       1
    17   14   15       2
    18   15   16       1
    19   16   17      ar
    20   16   22      ar
    21   17   18       1
    22   17   19      ar
    23   19   20      ar
    24   20   21      ar
    25   21   22      ar
    26   23   24       1
    27   24   25      ar
    28   24   26      ar
    29   24   27       1
    30   27   28       1
    31   28   29       1
    32   29   30       1
    33   29   31       1
    34   30   35       1
    35   31   32       1
    36   31   33       1
    37   33   34       1
    38   33   35       1
    39   35   36       1
    40   36   37      ar
    41   36   44      ar
    42   37   38      ar
    43   38   39       1
    44   38   42      ar
    45   39   40       2
    46   39   41      am
    47   42   43      ar
    48   43   44      ar
    49   44   70       1
    50    5   45       1
    51    5   46       1
    52    6   47       1
    53    8   48       1
    54    9   49       1
    55   10   50       1
    56   11   51       1
    57   12   52       1
    58   14   53       1
    59   18   54       1
    60   18   55       1
    61   20   56       1
    62   43   69       1
    63   28   57       1
    64   28   58       1
    65   29   59       1
    66   31   60       1
    67   32   61       1
    68   33   62       1
    69   34   63       1
    70   35   64       1
    71   37   65       1
    72   41   66       1
    73   41   67       1
    74   42   68       1
@<TRIPOS>SUBSTRUCTURE
     1 NAD501      1 GROUP             4 A     NAD     0 **** NAD A 501
