@<TRIPOS>MOLECULE
3ewy_U5P_1_ligand
   32    33     1     0     0
SMALL
NO_CHARGES


@<TRIPOS>ATOM
     1 N1          14.4110    10.0150    36.8080 N.pl3        1 U5P481   0.0000
     2 C2          15.4240    10.3110    37.7160 C.2          1 U5P481   0.0000
     3 N3          16.7090    10.0750    37.4930 N.pl3        1 U5P481   0.0000
     4 C4          17.1600     9.5060    36.2970 C.2          1 U5P481   0.0000
     5 C5          16.1990     9.1710    35.3660 C.2          1 U5P481   0.0000
     6 C6          14.8680     9.4010    35.6210 C.2          1 U5P481   0.0000
     7 O2          15.1470    10.8140    38.8380 O.2          1 U5P481   0.0000
     8 O4          18.4010     9.3850    36.1260 O.2          1 U5P481   0.0000
     9 C1'         13.0470    10.3840    36.9820 C.3          1 U5P481   0.0000
    10 C2'         12.3760     9.6260    38.1140 C.3          1 U5P481   0.0000
    11 O2'         11.7720     8.4430    37.6420 O.3          1 U5P481   0.0000
    12 C3'         11.3730    10.6110    38.6200 C.3          1 U5P481   0.0000
    13 C4'         12.0240    11.9690    38.3720 C.3          1 U5P481   0.0000
    14 O3'         10.1700    10.4920    37.8480 O.3          1 U5P481   0.0000
    15 O4'         12.9620    11.7860    37.2870 O.3          1 U5P481   0.0000
    16 C5'         12.8190    12.4680    39.5920 C.3          1 U5P481   0.0000
    17 O5'         11.8120    12.8290    40.5390 O.3          1 U5P481   0.0000
    18 P           12.1560    13.4980    41.9760 P.3          1 U5P481   0.0000
    19 O1P         10.8700    13.3730    42.7050 O.co2        1 U5P481   0.0000
    20 O2P         13.3240    12.7460    42.5490 O.co2        1 U5P481  -1.0000
    21 O3P         12.5430    14.9410    41.6890 O.co2        1 U5P481  -1.0000
    22 H1          17.3756    10.3105    38.2002 H            1 U5P481   0.0000
    23 H2          16.4730     8.7572    34.4979 H            1 U5P481   0.0000
    24 H3          14.1944     9.1216    34.9367 H            1 U5P481   0.0000
    25 H1'         12.5510    10.2055    36.1323 H            1 U5P481   0.0000
    26 H2'         13.0417     9.4125    38.8291 H            1 U5P481   0.0000
    27 H6          11.3381     7.9631    38.4045 H            1 U5P481   0.0000
    28 H3'         11.1911    10.4716    39.5934 H            1 U5P481   0.0000
    29 H4'         11.3295    12.6414    38.1160 H            1 U5P481   0.0000
    30 H9           9.3839    10.7353    38.4162 H            1 U5P481   0.0000
    31 H5'1        13.3799    13.2600    39.3507 H            1 U5P481   0.0000
    32 H5'2        13.4044    11.7431    39.9551 H            1 U5P481   0.0000
@<TRIPOS>BOND
     1    1    2       1
     2    1    6       1
     3    1    9       1
     4    2    3       1
     5    2    7       2
     6    3    4       1
     7    4    5       1
     8    4    8       2
     9    5    6       2
    10    9   10       1
    11    9   15       1
    12   10   11       1
    13   10   12       1
    14   12   13       1
    15   12   14       1
    16   13   15       1
    17   13   16       1
    18   16   17       1
    19   17   18       1
    20   18   19      ar
    21   18   20      ar
    22   18   21      ar
    23    3   22       1
    24    5   23       1
    25    6   24       1
    26    9   25       1
    27   10   26       1
    28   11   27       1
    29   12   28       1
    30   13   29       1
    31   14   30       1
    32   16   31       1
    33   16   32       1
@<TRIPOS>SUBSTRUCTURE
     1 U5P481      1 GROUP             4 A     U5P     0 **** U5P A 481
