@<TRIPOS>MOLECULE
1ibr_GNP_2_ligand
   45    47     1     0     0
SMALL
NO_CHARGES


@<TRIPOS>ATOM
     1 PG          39.8530     9.4760   -50.9690 P.3          1 GNP252   0.0000
     2 O1G         41.2910     9.5510   -50.8050 O.co2        1 GNP252   0.0000
     3 O2G         39.1670    10.0710   -49.8250 O.co2        1 GNP252  -1.0000
     4 O3G         39.5350     7.9690   -50.8230 O.co2        1 GNP252  -1.0000
     5 N3B         39.3340    10.0280   -52.4100 N.3          1 GNP252   0.0000
     6 PB          39.6580    11.5560   -52.9160 P.3          1 GNP252   0.0000
     7 O1B         38.7040    12.5690   -52.4350 O.co2        1 GNP252   0.0000
     8 O2B         41.0530    11.9880   -52.7580 O.co2        1 GNP252  -1.0000
     9 O3A         39.4230    11.5470   -54.5050 O.3          1 GNP252   0.0000
    10 PA          40.5280    11.3730   -55.6820 P.3          1 GNP252   0.0000
    11 O1A         41.4240    12.5670   -55.7060 O.co2        1 GNP252   0.0000
    12 O2A         41.1520    10.0340   -55.5340 O.co2        1 GNP252  -1.0000
    13 O5'         39.5590    11.4310   -56.9850 O.3          1 GNP252   0.0000
    14 C5'         38.6550    10.3290   -57.2860 C.3          1 GNP252   0.0000
    15 C4'         38.2620    10.3390   -58.7840 C.3          1 GNP252   0.0000
    16 O4'         37.5820    11.5660   -59.1260 O.3          1 GNP252   0.0000
    17 C3'         39.4590    10.2110   -59.7570 C.3          1 GNP252   0.0000
    18 O3'         39.0910     9.3950   -60.8830 O.3          1 GNP252   0.0000
    19 C2'         39.6610    11.6700   -60.2020 C.3          1 GNP252   0.0000
    20 O2'         40.2680    11.7270   -61.5100 O.3          1 GNP252   0.0000
    21 C1'         38.2060    12.1500   -60.2690 C.3          1 GNP252   0.0000
    22 N9          38.1130    13.6210   -60.1920 N.pl3        1 GNP252   0.0000
    23 C8          38.5100    14.4750   -59.1620 C.2          1 GNP252   0.0000
    24 N7          38.3820    15.7340   -59.4310 N.2          1 GNP252   0.0000
    25 C5          37.5350    15.7350   -60.5590 C.2          1 GNP252   0.0000
    26 C6          36.8330    16.8190   -61.2410 C.2          1 GNP252   0.0000
    27 O6          36.8020    18.0170   -60.9570 O.2          1 GNP252   0.0000
    28 N1          36.1170    16.3750   -62.3650 N.pl3        1 GNP252   0.0000
    29 C2          36.0510    15.0710   -62.8190 C.2          1 GNP252   0.0000
    30 N2          35.3590    14.8080   -63.9460 N.pl3        1 GNP252   0.0000
    31 N3          36.6680    14.0300   -62.1590 N.2          1 GNP252   0.0000
    32 C4          37.3920    14.4310   -61.0490 C.2          1 GNP252   0.0000
    33 H3B         39.7183     9.4155   -53.1008 H            1 GNP252   0.0000
    34 H5'1        37.8294    10.4199   -56.7291 H            1 GNP252   0.0000
    35 H5'2        39.1085     9.4640   -57.0711 H            1 GNP252   0.0000
    36 H4'         37.6376     9.5759   -58.9508 H            1 GNP252   0.0000
    37 H3'         40.2704     9.8532   -59.2947 H            1 GNP252   0.0000
    38 H6          39.8689     9.3171   -61.5066 H            1 GNP252   0.0000
    39 H2'         40.1884    12.1893   -59.5295 H            1 GNP252   0.0000
    40 H8          41.1397    12.2135   -61.4520 H            1 GNP252   0.0000
    41 H1'         37.7713    11.8196   -61.1067 H            1 GNP252   0.0000
    42 H10         38.8641    14.1414   -58.2883 H            1 GNP252   0.0000
    43 H11         35.6097    17.0637   -62.8830 H            1 GNP252   0.0000
    44 H12         35.3003    13.8707   -64.2895 H            1 GNP252   0.0000
    45 H13         34.9045    15.5503   -64.4383 H            1 GNP252   0.0000
@<TRIPOS>BOND
     1    1    2      ar
     2    1    3      ar
     3    1    4      ar
     4    1    5       1
     5    5    6       1
     6    6    7      ar
     7    6    8      ar
     8    6    9       1
     9    9   10       1
    10   10   11      ar
    11   10   12      ar
    12   10   13       1
    13   13   14       1
    14   14   15       1
    15   15   16       1
    16   15   17       1
    17   16   21       1
    18   17   18       1
    19   17   19       1
    20   19   20       1
    21   19   21       1
    22   21   22       1
    23   22   23       1
    24   22   32       1
    25   23   24       2
    26   24   25       1
    27   25   26       1
    28   25   32       2
    29   26   27       2
    30   26   28       1
    31   28   29       1
    32   29   30       1
    33   29   31       2
    34   31   32       1
    35   30   45       1
    36   30   44       1
    37    5   33       1
    38   28   43       1
    39   23   42       1
    40   14   34       1
    41   14   35       1
    42   15   36       1
    43   17   37       1
    44   18   38       1
    45   19   39       1
    46   20   40       1
    47   21   41       1
@<TRIPOS>SUBSTRUCTURE
     1 GNP252      1 GROUP             4 C     GNP     0 **** GNP C 252
