@<TRIPOS>MOLECULE
4hj6_FMN_2_ligand
   50    52     1     0     0
SMALL
NO_CHARGES


@<TRIPOS>ATOM
     1 N1          42.0170   -25.5740    -0.7490 N.2          1 FMN201   0.0000
     2 C2          41.6340   -24.3190    -0.3000 C.2          1 FMN201   0.0000
     3 O2          40.6270   -24.1870     0.3870 O.2          1 FMN201   0.0000
     4 N3          42.3720   -23.1960    -0.6330 N.pl3        1 FMN201   0.0000
     5 C4          43.5040   -23.3280    -1.4210 C.2          1 FMN201   0.0000
     6 O4          44.1700   -22.3300    -1.7290 O.2          1 FMN201   0.0000
     7 C4A         43.8890   -24.5880    -1.8730 C.2          1 FMN201   0.0000
     8 N5          45.0250   -24.7250    -2.6460 N.2          1 FMN201   0.0000
     9 C5A         45.4240   -25.9670    -3.0890 C.ar         1 FMN201   0.0000
    10 C6          46.5640   -26.0880    -3.8750 C.ar         1 FMN201   0.0000
    11 C7          46.9570   -27.3410    -4.3310 C.ar         1 FMN201   0.0000
    12 C7M         48.1890   -27.4790    -5.1910 C.3          1 FMN201   0.0000
    13 C8          46.2070   -28.4690    -4.0030 C.ar         1 FMN201   0.0000
    14 C8M         46.6350   -29.8250    -4.5070 C.3          1 FMN201   0.0000
    15 C9          45.0660   -28.3440    -3.2150 C.ar         1 FMN201   0.0000
    16 C9A         44.6700   -27.0900    -2.7660 C.ar         1 FMN201   0.0000
    17 N10         43.5350   -26.9660    -1.9800 N.pl3        1 FMN201   0.0000
    18 C10         43.1430   -25.7160    -1.5350 C.2          1 FMN201   0.0000
    19 C1'         42.7040   -28.1780    -1.6540 C.3          1 FMN201   0.0000
    20 C2'         42.9500   -28.9420    -0.3580 C.3          1 FMN201   0.0000
    21 O2'         44.3320   -29.1400    -0.1780 O.3          1 FMN201   0.0000
    22 C3'         42.2190   -30.2780    -0.5110 C.3          1 FMN201   0.0000
    23 O3'         42.7290   -31.0350    -1.5970 O.3          1 FMN201   0.0000
    24 C4'         40.7120   -30.0650    -0.7080 C.3          1 FMN201   0.0000
    25 O4'         40.1750   -29.4810     0.4580 O.3          1 FMN201   0.0000
    26 C5'         39.9220   -31.3410    -1.0400 C.3          1 FMN201   0.0000
    27 O5'         40.3370   -32.4360    -0.2440 O.3          1 FMN201   0.0000
    28 P           39.5680   -32.8620     1.1360 P.3          1 FMN201   0.0000
    29 O1P         39.7360   -31.7570     2.1280 O.co2        1 FMN201   0.0000
    30 O2P         38.0930   -33.0390     0.8890 O.co2        1 FMN201  -1.0000
    31 O3P         40.2160   -34.1590     1.5760 O.co2        1 FMN201  -1.0000
    32 H1          42.0895   -22.2940    -0.3064 H            1 FMN201   0.0000
    33 H2          47.0992   -25.2771    -4.1115 H            1 FMN201   0.0000
    34 H7M1        48.3242   -28.4411    -5.4277 H            1 FMN201   0.0000
    35 H7M2        48.0735   -26.9430    -6.0273 H            1 FMN201   0.0000
    36 H7M3        48.9858   -27.1443    -4.6880 H            1 FMN201   0.0000
    37 H8M1        45.9924   -30.5192    -4.1828 H            1 FMN201   0.0000
    38 H8M2        46.6450   -29.8210    -5.5069 H            1 FMN201   0.0000
    39 H8M3        47.5514   -30.0336    -4.1653 H            1 FMN201   0.0000
    40 H9          44.5328   -29.1546    -2.9728 H            1 FMN201   0.0000
    41 H1'1        42.8352   -28.8283    -2.4023 H            1 FMN201   0.0000
    42 H1'2        41.7501   -27.8783    -1.6363 H            1 FMN201   0.0000
    43 H2'         42.5737   -28.4328     0.4160 H            1 FMN201   0.0000
    44 H13         44.4889   -29.6413     0.6729 H            1 FMN201   0.0000
    45 H3'         42.3531   -30.8055     0.3279 H            1 FMN201   0.0000
    46 H15         42.2288   -31.8982    -1.6657 H            1 FMN201   0.0000
    47 H4'         40.5874   -29.4199    -1.4619 H            1 FMN201   0.0000
    48 H17         40.3309   -30.0882     1.2371 H            1 FMN201   0.0000
    49 H5'1        40.0639   -31.5685    -2.0034 H            1 FMN201   0.0000
    50 H5'2        38.9500   -31.1719    -0.8771 H            1 FMN201   0.0000
@<TRIPOS>BOND
     1    1    2       1
     2    1   18       2
     3    2    3       2
     4    2    4       1
     5    4    5       1
     6    5    6       2
     7    5    7       1
     8    7    8       2
     9    7   18       1
    10    8    9       1
    11    9   10      ar
    12    9   16      ar
    13   10   11      ar
    14   11   12       1
    15   11   13      ar
    16   13   14       1
    17   13   15      ar
    18   15   16      ar
    19   16   17       1
    20   17   18       1
    21   17   19       1
    22   19   20       1
    23   20   21       1
    24   20   22       1
    25   22   23       1
    26   22   24       1
    27   24   25       1
    28   24   26       1
    29   26   27       1
    30   27   28       1
    31   28   29      ar
    32   28   30      ar
    33   28   31      ar
    34    4   32       1
    35   10   33       1
    36   12   34       1
    37   12   35       1
    38   12   36       1
    39   14   37       1
    40   14   38       1
    41   14   39       1
    42   15   40       1
    43   19   41       1
    44   19   42       1
    45   20   43       1
    46   21   44       1
    47   22   45       1
    48   23   46       1
    49   24   47       1
    50   25   48       1
    51   26   49       1
    52   26   50       1
@<TRIPOS>SUBSTRUCTURE
     1 FMN201      1 GROUP             4 B     FMN     0 **** FMN B 201
