@<TRIPOS>MOLECULE
3lbf_SAH_2_ligand
   46    48     1     0     0
SMALL
NO_CHARGES


@<TRIPOS>ATOM
     1 N           27.8410    28.4590     3.4570 N.4          1 SAH300   1.0000
     2 CA          28.2260    28.9010     4.8320 C.3          1 SAH300   0.0000
     3 CB          28.4810    27.6610     5.6670 C.3          1 SAH300   0.0000
     4 CG          27.1530    27.5340     6.3830 C.3          1 SAH300   0.0000
     5 SD          27.1730    26.4850     7.7730 S.3          1 SAH300   0.0000
     6 C           29.4290    29.7740     4.7640 C.2          1 SAH300   0.0000
     7 O           30.0630    29.8650     3.7120 O.co2        1 SAH300   0.0000
     8 OXT         29.7760    30.4290     5.7510 O.co2        1 SAH300  -1.0000
     9 C5'         25.4870    25.9620     7.6300 C.3          1 SAH300   0.0000
    10 C4'         24.5060    27.1360     7.7640 C.3          1 SAH300   0.0000
    11 O4'         23.1900    26.6990     7.3940 O.3          1 SAH300   0.0000
    12 C3'         24.4330    27.7940     9.1530 C.3          1 SAH300   0.0000
    13 O3'         24.5500    29.2270     9.0090 O.3          1 SAH300   0.0000
    14 C2'         23.0290    27.4420     9.6350 C.3          1 SAH300   0.0000
    15 O2'         22.4670    28.4420    10.5140 O.3          1 SAH300   0.0000
    16 C1'         22.2870    27.3370     8.2980 C.3          1 SAH300   0.0000
    17 N9          20.9810    26.6530     8.3460 N.pl3        1 SAH300   0.0000
    18 C8          20.6510    25.5770     9.0990 C.2          1 SAH300   0.0000
    19 N7          19.3590    25.2490     8.8980 N.2          1 SAH300   0.0000
    20 C5          18.8670    26.1470     8.0100 C.ar         1 SAH300   0.0000
    21 C6          17.5860    26.3510     7.3790 C.ar         1 SAH300   0.0000
    22 N6          16.5840    25.5050     7.6880 N.pl3        1 SAH300   0.0000
    23 N1          17.4430    27.3880     6.5100 N.ar         1 SAH300   0.0000
    24 C2          18.4850    28.2120     6.2260 C.ar         1 SAH300   0.0000
    25 N3          19.7120    28.0800     6.7840 N.ar         1 SAH300   0.0000
    26 C4          19.9380    27.0680     7.6610 C.ar         1 SAH300   0.0000
    27 H1          27.6671    29.2610     2.8855 H            1 SAH300   0.0000
    28 H2          28.5844    27.9212     3.0594 H            1 SAH300   0.0000
    29 HA          27.4694    29.4167     5.2341 H            1 SAH300   0.0000
    30 HB1         29.2354    27.7969     6.3092 H            1 SAH300   0.0000
    31 HB2         28.6700    26.8629     5.0949 H            1 SAH300   0.0000
    32 HG1         26.4817    27.1774     5.7333 H            1 SAH300   0.0000
    33 HG2         26.8734    28.4455     6.6847 H            1 SAH300   0.0000
    34 H5'1        25.2935    25.2960     8.3504 H            1 SAH300   0.0000
    35 H5'2        25.3569    25.5332     6.7360 H            1 SAH300   0.0000
    36 H4'         24.7856    27.8395     7.1107 H            1 SAH300   0.0000
    37 H3'         25.1328    27.4298     9.7675 H            1 SAH300   0.0000
    38 H12         23.8028    29.5667     8.4378 H            1 SAH300   0.0000
    39 H2'         23.0377    26.5523    10.0914 H            1 SAH300   0.0000
    40 H14         22.4125    29.3166    10.0322 H            1 SAH300   0.0000
    41 H1'         22.1303    28.2666     7.9644 H            1 SAH300   0.0000
    42 H16         21.2750    25.0957     9.7146 H            1 SAH300   0.0000
    43 H17         15.6843    25.6205     7.2670 H            1 SAH300   0.0000
    44 H18         16.7400    24.7616     8.3384 H            1 SAH300   0.0000
    45 H19         18.3386    28.9538     5.5716 H            1 SAH300   0.0000
    46 H20         27.0139    27.8991     3.5062 H            1 SAH300   0.0000
@<TRIPOS>BOND
     1    1    2       1
     2    2    3       1
     3    2    6       1
     4    3    4       1
     5    4    5       1
     6    5    9       1
     7    6    7      ar
     8    6    8      ar
     9    9   10       1
    10   10   11       1
    11   10   12       1
    12   11   16       1
    13   12   13       1
    14   12   14       1
    15   14   15       1
    16   14   16       1
    17   16   17       1
    18   17   18       1
    19   17   26       1
    20   18   19       2
    21   19   20       1
    22   20   21      ar
    23   20   26      ar
    24   21   22       1
    25   21   23      ar
    26   23   24      ar
    27   24   25      ar
    28   25   26      ar
    29    1   27       1
    30    1   28       1
    31    2   29       1
    32    3   30       1
    33    3   31       1
    34    4   32       1
    35    4   33       1
    36    1   46       1
    37    9   34       1
    38    9   35       1
    39   10   36       1
    40   12   37       1
    41   13   38       1
    42   14   39       1
    43   15   40       1
    44   16   41       1
    45   18   42       1
    46   22   43       1
    47   22   44       1
    48   24   45       1
@<TRIPOS>SUBSTRUCTURE
     1 SAH300      1 GROUP             4 B     SAH     0 **** SAH B 300
