@<TRIPOS>MOLECULE
1ao0_5GP_1_ligand
   36    38     1     0     0
SMALL
NO_CHARGES


@<TRIPOS>ATOM
     1 P           14.5510    19.6750    79.9950 P.3          1 5GP467   0.0000
     2 O1P         15.3410    20.3200    78.8900 O.co2        1 5GP467   0.0000
     3 O2P         15.3760    19.5980    81.2230 O.co2        1 5GP467  -1.0000
     4 O3P         13.2980    20.4780    80.2440 O.co2        1 5GP467  -1.0000
     5 O5'         14.1350    18.2030    79.6140 O.3          1 5GP467   0.0000
     6 C5'         12.9050    17.6560    80.0480 C.3          1 5GP467   0.0000
     7 C4'         12.7820    16.2900    79.4790 C.3          1 5GP467   0.0000
     8 O4'         14.0440    15.6780    79.7510 O.3          1 5GP467   0.0000
     9 C3'         11.7380    15.3260    80.0240 C.3          1 5GP467   0.0000
    10 O3'         10.6720    15.2910    79.0500 O.3          1 5GP467   0.0000
    11 C2'         12.3890    13.9530    79.8220 C.3          1 5GP467   0.0000
    12 O2'         11.9010    13.4430    78.5760 O.3          1 5GP467   0.0000
    13 C1'         13.8710    14.2840    79.7450 C.3          1 5GP467   0.0000
    14 N9          14.7520    13.7670    80.7870 N.pl3        1 5GP467   0.0000
    15 C8          16.0120    13.2580    80.6370 C.2          1 5GP467   0.0000
    16 N7          16.5500    12.8690    81.7710 N.2          1 5GP467   0.0000
    17 C5          15.5790    13.1520    82.6860 C.2          1 5GP467   0.0000
    18 C6          15.5740    12.9520    84.0820 C.2          1 5GP467   0.0000
    19 O6          16.4680    12.4540    84.7940 O.2          1 5GP467   0.0000
    20 N1          14.3750    13.3850    84.6490 N.pl3        1 5GP467   0.0000
    21 C2          13.3260    13.9340    83.9460 C.2          1 5GP467   0.0000
    22 N2          12.2620    14.3130    84.6380 N.pl3        1 5GP467   0.0000
    23 N3          13.3070    14.1060    82.6540 N.2          1 5GP467   0.0000
    24 C4          14.4530    13.6980    82.1210 C.2          1 5GP467   0.0000
    25 H5'1        12.1485    18.2261    79.7276 H            1 5GP467   0.0000
    26 H5'2        12.8880    17.6101    81.0468 H            1 5GP467   0.0000
    27 H4'         12.6666    16.3631    78.4884 H            1 5GP467   0.0000
    28 H3'         11.4427    15.5151    80.9605 H            1 5GP467   0.0000
    29 H5           9.9980    15.9968    79.2680 H            1 5GP467   0.0000
    30 H2'         12.1873    13.3328    80.5801 H            1 5GP467   0.0000
    31 H7          12.6697    13.2874    77.9556 H            1 5GP467   0.0000
    32 H1'         14.2100    13.9428    78.8682 H            1 5GP467   0.0000
    33 H9          16.4768    13.1888    79.7543 H            1 5GP467   0.0000
    34 H10         14.2697    13.2896    85.6389 H            1 5GP467   0.0000
    35 H11         11.4773    14.7167    84.1675 H            1 5GP467   0.0000
    36 H12         12.2434    14.1955    85.6309 H            1 5GP467   0.0000
@<TRIPOS>BOND
     1    1    2      ar
     2    1    3      ar
     3    1    4      ar
     4    1    5       1
     5    5    6       1
     6    6    7       1
     7    7    8       1
     8    7    9       1
     9    8   13       1
    10    9   10       1
    11    9   11       1
    12   11   12       1
    13   11   13       1
    14   13   14       1
    15   14   15       1
    16   14   24       1
    17   15   16       2
    18   16   17       1
    19   17   18       1
    20   17   24       2
    21   18   19       2
    22   18   20       1
    23   20   21       1
    24   21   22       1
    25   21   23       2
    26   23   24       1
    27   22   36       1
    28   22   35       1
    29    6   25       1
    30    6   26       1
    31    7   27       1
    32    9   28       1
    33   10   29       1
    34   11   30       1
    35   12   31       1
    36   13   32       1
    37   15   33       1
    38   20   34       1
@<TRIPOS>SUBSTRUCTURE
     1 5GP467      1 GROUP             4 A     5GP     0 **** 5GP A 467
