@<TRIPOS>MOLECULE
4ki0_ANP_2_ligand
   44    46     1     0     0
SMALL
NO_CHARGES


@<TRIPOS>ATOM
     1 PG           0.5550    14.8590     6.3060 P.3          1 ANP402   0.0000
     2 O1G         -0.7370    15.6450     6.3350 O.co2        1 ANP402   0.0000
     3 O2G          0.8660    14.0650     7.5460 O.co2        1 ANP402  -1.0000
     4 O3G          0.7690    14.1000     5.0250 O.co2        1 ANP402  -1.0000
     5 PB           1.7710    17.5360     5.5470 P.3          1 ANP402   0.0000
     6 O1B          2.8060    17.4060     4.4610 O.co2        1 ANP402   0.0000
     7 O2B          0.3650    17.9540     5.1710 O.co2        1 ANP402  -1.0000
     8 N3B          1.7780    16.0640     6.4570 N.3          1 ANP402   0.0000
     9 PA           1.7220    19.9710     7.0710 P.3          1 ANP402   0.0000
    10 O1A          0.3230    19.6900     7.5670 O.co2        1 ANP402   0.0000
    11 O2A          1.9410    20.9920     5.9840 O.co2        1 ANP402  -1.0000
    12 O3A          2.3860    18.5780     6.6100 O.3          1 ANP402   0.0000
    13 O5'          2.6730    20.4080     8.2990 O.3          1 ANP402   0.0000
    14 C5'          4.0480    20.6830     8.0470 C.3          1 ANP402   0.0000
    15 C4'          4.8570    20.7790     9.3360 C.3          1 ANP402   0.0000
    16 O4'          4.4700    21.9380    10.0960 O.3          1 ANP402   0.0000
    17 C3'          4.6810    19.5620    10.2390 C.3          1 ANP402   0.0000
    18 O3'          5.9680    19.1000    10.6770 O.3          1 ANP402   0.0000
    19 C2'          3.8200    20.0870    11.3800 C.3          1 ANP402   0.0000
    20 O2'          4.0240    19.3980    12.6180 O.3          1 ANP402   0.0000
    21 C1'          4.1910    21.5680    11.4490 C.3          1 ANP402   0.0000
    22 N9           3.1090    22.4330    11.9930 N.pl3        1 ANP402   0.0000
    23 C8           1.7960    22.4380    11.6350 C.2          1 ANP402   0.0000
    24 N7           1.1060    23.3690    12.3440 N.2          1 ANP402   0.0000
    25 C5           1.9790    23.9700    13.1670 C.ar         1 ANP402   0.0000
    26 C6           1.9240    25.0450    14.1820 C.ar         1 ANP402   0.0000
    27 N6           0.7500    25.6620    14.4540 N.pl3        1 ANP402   0.0000
    28 N1           3.0700    25.3860    14.8220 N.ar         1 ANP402   0.0000
    29 C2           4.2480    24.7770    14.5580 C.ar         1 ANP402   0.0000
    30 N3           4.3680    23.7930    13.6430 N.ar         1 ANP402   0.0000
    31 C4           3.2970    23.3570    12.9310 C.ar         1 ANP402   0.0000
    32 H3B          1.7794    16.3355     7.4194 H            1 ANP402   0.0000
    33 H5'1         4.1189    21.5512     7.5560 H            1 ANP402   0.0000
    34 H5'2         4.4259    19.9490     7.4826 H            1 ANP402   0.0000
    35 H4'          5.8249    20.8623     9.0990 H            1 ANP402   0.0000
    36 H3'          4.2004    18.8345     9.7494 H            1 ANP402   0.0000
    37 H6           6.5199    18.8479     9.8821 H            1 ANP402   0.0000
    38 H2'          2.8574    20.0072    11.1211 H            1 ANP402   0.0000
    39 H8           3.3933    18.6242    12.6767 H            1 ANP402   0.0000
    40 H1'          5.0166    21.6794    12.0021 H            1 ANP402   0.0000
    41 H10          1.3937    21.8377    10.9438 H            1 ANP402   0.0000
    42 H11          0.7142    26.3885    15.1403 H            1 ANP402   0.0000
    43 H12         -0.0813    25.3913    13.9686 H            1 ANP402   0.0000
    44 H13          5.0622    25.0674    15.0607 H            1 ANP402   0.0000
@<TRIPOS>BOND
     1    1    2      ar
     2    1    3      ar
     3    1    4      ar
     4    1    8       1
     5    5    6      ar
     6    5    7      ar
     7    5    8       1
     8    5   12       1
     9    9   10      ar
    10    9   11      ar
    11    9   12       1
    12    9   13       1
    13   13   14       1
    14   14   15       1
    15   15   16       1
    16   15   17       1
    17   16   21       1
    18   17   18       1
    19   17   19       1
    20   19   20       1
    21   19   21       1
    22   21   22       1
    23   22   23       1
    24   22   31       1
    25   23   24       2
    26   24   25       1
    27   25   26      ar
    28   25   31      ar
    29   26   27       1
    30   26   28      ar
    31   28   29      ar
    32   29   30      ar
    33   30   31      ar
    34   29   44       1
    35   27   43       1
    36   27   42       1
    37    8   32       1
    38   23   41       1
    39   14   33       1
    40   14   34       1
    41   15   35       1
    42   17   36       1
    43   18   37       1
    44   19   38       1
    45   20   39       1
    46   21   40       1
@<TRIPOS>SUBSTRUCTURE
     1 ANP402      1 GROUP             4 B     ANP     0 **** ANP B 402
