@<TRIPOS>MOLECULE
1c0a_AMO_1_ligand
   49    51     1     0     0
SMALL
NO_CHARGES


@<TRIPOS>ATOM
     1 P           53.5170    39.4400   -13.2110 P.3          1 AMO831   0.0000
     2 O1P         52.7870    38.0850   -13.3270 O.co2        1 AMO831   0.0000
     3 O2P         54.7080    39.7330   -14.1480 O.co2        1 AMO831  -1.0000
     4 O3P         52.5720    40.5590   -14.0410 O.3          1 AMO831   0.0000
     5 O5'         54.0020    39.6990   -11.6870 O.3          1 AMO831   0.0000
     6 C5'         55.0030    40.7110   -11.3870 C.3          1 AMO831   0.0000
     7 C4'         56.1410    40.1260   -10.5740 C.3          1 AMO831   0.0000
     8 O4'         55.6530    39.7390    -9.2650 O.3          1 AMO831   0.0000
     9 C1'         56.3770    38.6150    -8.7970 C.3          1 AMO831   0.0000
    10 N9          55.4170    37.5740    -8.4390 N.pl3        1 AMO831   0.0000
    11 C4          55.3160    36.9210    -7.2330 C.ar         1 AMO831   0.0000
    12 N3          56.0760    37.0940    -6.1410 N.ar         1 AMO831   0.0000
    13 C2          55.6740    36.2910    -5.1490 C.ar         1 AMO831   0.0000
    14 N1          54.6720    35.4120    -5.1260 N.ar         1 AMO831   0.0000
    15 C6          53.9140    35.2730    -6.2420 C.ar         1 AMO831   0.0000
    16 N6          52.8780    34.4240    -6.2190 N.pl3        1 AMO831   0.0000
    17 C5          54.2510    36.0510    -7.3660 C.ar         1 AMO831   0.0000
    18 N7          53.6980    36.1440    -8.6340 N.2          1 AMO831   0.0000
    19 C8          54.4240    37.0560    -9.2290 C.2          1 AMO831   0.0000
    20 C2'         57.3820    38.2230    -9.8810 C.3          1 AMO831   0.0000
    21 C3'         56.7600    38.8500   -11.1220 C.3          1 AMO831   0.0000
    22 O3'         57.7540    39.0890   -12.1120 O.3          1 AMO831   0.0000
    23 N           50.1030    42.8770   -14.6280 N.4          1 AMO831   1.0000
    24 CA          51.4060    42.2170   -14.8320 C.3          1 AMO831   0.0000
    25 CB          52.5390    43.2500   -14.8870 C.3          1 AMO831   0.0000
    26 CG          52.4860    44.1010   -16.1390 C.2          1 AMO831   0.0000
    27 OD1         52.7550    45.3200   -16.0500 O.co2        1 AMO831   0.0000
    28 OD2         52.1370    43.5570   -17.2070 O.co2        1 AMO831  -1.0000
    29 C           51.6710    41.2200   -13.7150 C.2          1 AMO831   0.0000
    30 O           50.9430    41.1440   -12.7250 O.2          1 AMO831   0.0000
    31 O2'         58.6320    38.8030    -9.5970 O.3          1 AMO831   0.0000
    32 H5'1        54.5752    41.4497   -10.8662 H            1 AMO831   0.0000
    33 H5'2        55.3671    41.0750   -12.2443 H            1 AMO831   0.0000
    34 H4'         56.8558    40.8170   -10.4662 H            1 AMO831   0.0000
    35 H1'         56.8814    38.8801    -7.9752 H            1 AMO831   0.0000
    36 H5          56.2016    36.3603    -4.3023 H            1 AMO831   0.0000
    37 H6          52.3080    34.3085    -7.0325 H            1 AMO831   0.0000
    38 H7          52.6746    33.9057    -5.3883 H            1 AMO831   0.0000
    39 H8          54.2686    37.3479   -10.1727 H            1 AMO831   0.0000
    40 H2'         57.4528    37.2296    -9.9707 H            1 AMO831   0.0000
    41 H3'         56.0470    38.2521   -11.4884 H            1 AMO831   0.0000
    42 H11         57.7734    38.3244   -12.7562 H            1 AMO831   0.0000
    43 H12         49.3808    42.1860   -14.5954 H            1 AMO831   0.0000
    44 H13         50.1177    43.3847   -13.7666 H            1 AMO831   0.0000
    45 HA          51.3813    41.7235   -15.7014 H            1 AMO831   0.0000
    46 HB1         53.4146    42.7675   -14.8637 H            1 AMO831   0.0000
    47 HB2         52.4668    43.8483   -14.0890 H            1 AMO831   0.0000
    48 H17         59.3600    38.2171    -9.9531 H            1 AMO831   0.0000
    49 H18         49.9269    43.5078   -15.3837 H            1 AMO831   0.0000
@<TRIPOS>BOND
     1    1    2      ar
     2    1    3      ar
     3    1    4       1
     4    1    5       1
     5    4   29       1
     6    5    6       1
     7    6    7       1
     8    7    8       1
     9    7   21       1
    10    8    9       1
    11    9   10       1
    12    9   20       1
    13   10   11       1
    14   10   19       1
    15   11   12      ar
    16   11   17      ar
    17   12   13      ar
    18   13   14      ar
    19   14   15      ar
    20   15   16       1
    21   15   17      ar
    22   17   18       1
    23   18   19       2
    24   20   21       1
    25   20   31       1
    26   21   22       1
    27   23   24       1
    28   24   25       1
    29   24   29       1
    30   25   26       1
    31   26   27      ar
    32   26   28      ar
    33   29   30       2
    34   31   48       1
    35    6   32       1
    36    6   33       1
    37    7   34       1
    38    9   35       1
    39   13   36       1
    40   16   37       1
    41   16   38       1
    42   19   39       1
    43   20   40       1
    44   21   41       1
    45   22   42       1
    46   23   43       1
    47   23   44       1
    48   24   45       1
    49   25   46       1
    50   25   47       1
    51   23   49       1
@<TRIPOS>SUBSTRUCTURE
     1 AMO831      1 GROUP             4 A     AMO     0 **** AMO A 831
