@<TRIPOS>MOLECULE
4qos_ADP_1_ligand
   39    41     1     0     0
SMALL
NO_CHARGES


@<TRIPOS>ATOM
     1 PB         -64.4500   130.8850     3.3020 P.3          1 ADP301   0.0000
     2 O1B        -65.3530   129.7070     3.5320 O.co2        1 ADP301   0.0000
     3 O2B        -63.4340   130.7100     2.1930 O.co2        1 ADP301  -1.0000
     4 O3B        -63.8770   131.3450     4.5800 O.co2        1 ADP301  -1.0000
     5 PA         -65.6360   132.4880     1.2290 P.3          1 ADP301   0.0000
     6 O1A        -65.9700   131.2300     0.4690 O.co2        1 ADP301   0.0000
     7 O2A        -64.5160   133.3650     0.7230 O.co2        1 ADP301  -1.0000
     8 O3A        -65.4420   132.0580     2.7760 O.3          1 ADP301   0.0000
     9 O5'        -66.9760   133.3860     1.3390 O.3          1 ADP301   0.0000
    10 C5'        -68.1790   132.7940     1.8320 C.3          1 ADP301   0.0000
    11 C4'        -69.3840   133.5300     1.2780 C.3          1 ADP301   0.0000
    12 O4'        -69.5140   134.7890     1.9330 O.3          1 ADP301   0.0000
    13 C3'        -69.2390   133.8320    -0.2080 C.3          1 ADP301   0.0000
    14 O3'        -70.5280   133.7820    -0.8320 O.3          1 ADP301   0.0000
    15 C2'        -68.7100   135.2430    -0.2600 C.3          1 ADP301   0.0000
    16 O2'        -69.1030   135.9500    -1.4420 O.3          1 ADP301   0.0000
    17 C1'        -69.3390   135.8390     0.9820 C.3          1 ADP301   0.0000
    18 N9         -68.4820   136.8780     1.5650 N.pl3        1 ADP301   0.0000
    19 C8         -67.3430   136.6740     2.2550 C.2          1 ADP301   0.0000
    20 N7         -66.8280   137.8600     2.6570 N.2          1 ADP301   0.0000
    21 C5         -67.6540   138.8310     2.2230 C.ar         1 ADP301   0.0000
    22 C6         -67.6870   140.2990     2.3050 C.ar         1 ADP301   0.0000
    23 N6         -66.7000   140.9470     2.9600 N.pl3        1 ADP301   0.0000
    24 N1         -68.7180   140.9450     1.7140 N.ar         1 ADP301   0.0000
    25 C2         -69.6920   140.2850     1.0690 C.ar         1 ADP301   0.0000
    26 N3         -69.7200   138.9460     0.9660 N.ar         1 ADP301   0.0000
    27 C4         -68.7390   138.1820     1.5010 C.ar         1 ADP301   0.0000
    28 H5'1       -68.1890   132.8467     2.8306 H            1 ADP301   0.0000
    29 H5'2       -68.2170   131.8358     1.5484 H            1 ADP301   0.0000
    30 H4'        -70.2089   132.9857     1.4307 H            1 ADP301   0.0000
    31 H3'        -68.6040   133.1941    -0.6438 H            1 ADP301   0.0000
    32 H5         -70.9482   134.6890    -0.8022 H            1 ADP301   0.0000
    33 H2'        -67.7136   135.2410    -0.1748 H            1 ADP301   0.0000
    34 H7         -69.2148   135.3026    -2.1959 H            1 ADP301   0.0000
    35 H1'        -70.2291   136.2314     0.7502 H            1 ADP301   0.0000
    36 H9         -66.9379   135.7792     2.4425 H            1 ADP301   0.0000
    37 H10        -66.7123   141.9450     3.0220 H            1 ADP301   0.0000
    38 H11        -65.9567   140.4289     3.3831 H            1 ADP301   0.0000
    39 H12        -70.4290   140.8128     0.6467 H            1 ADP301   0.0000
@<TRIPOS>BOND
     1    1    2      ar
     2    1    3      ar
     3    1    4      ar
     4    1    8       1
     5    5    6      ar
     6    5    7      ar
     7    5    8       1
     8    5    9       1
     9    9   10       1
    10   10   11       1
    11   11   12       1
    12   11   13       1
    13   12   17       1
    14   13   14       1
    15   13   15       1
    16   15   16       1
    17   15   17       1
    18   17   18       1
    19   18   19       1
    20   18   27       1
    21   19   20       2
    22   20   21       1
    23   21   22      ar
    24   21   27      ar
    25   22   23       1
    26   22   24      ar
    27   24   25      ar
    28   25   26      ar
    29   26   27      ar
    30   25   39       1
    31   23   38       1
    32   23   37       1
    33   10   28       1
    34   10   29       1
    35   11   30       1
    36   13   31       1
    37   14   32       1
    38   15   33       1
    39   16   34       1
    40   17   35       1
    41   19   36       1
@<TRIPOS>SUBSTRUCTURE
     1 ADP301      1 GROUP             4 A     ADP     0 **** ADP A 301
