@<TRIPOS>MOLECULE
3soy_IMD_1_ligand
    9     9     1     0     0
SMALL
NO_CHARGES


@<TRIPOS>ATOM
     1 N1          55.0350     9.2670    11.6340 N.pl3        1 IMD182   0.0000
     2 C2          56.2510     9.3420    12.1820 C.2          1 IMD182   0.0000
     3 N3          57.1400     8.7330    11.3580 N.2          1 IMD182   0.0000
     4 C4          56.4650     8.2940    10.2600 C.2          1 IMD182   0.0000
     5 C5          55.1390     8.6280    10.4370 C.2          1 IMD182   0.0000
     6 H1          54.1904     9.6209    12.0358 H            1 IMD182   0.0000
     7 H2          56.4699     9.7758    13.0560 H            1 IMD182   0.0000
     8 H3          56.8574     7.8184     9.4727 H            1 IMD182   0.0000
     9 H4          54.3907     8.4359     9.8020 H            1 IMD182   0.0000
@<TRIPOS>BOND
     1    1    2       1
     2    1    5       1
     3    2    3       2
     4    3    4       1
     5    4    5       2
     6    1    6       1
     7    2    7       1
     8    4    8       1
     9    5    9       1
@<TRIPOS>SUBSTRUCTURE
     1 IMD182      1 GROUP             4 A     IMD     0 **** IMD A 182
