@<TRIPOS>MOLECULE
4pc3_GDP_2_ligand
   40    42     1     0     0
SMALL
NO_CHARGES


@<TRIPOS>ATOM
     1 PB          48.9660   -13.8320    68.4650 P.3          1 GDP401   0.0000
     2 O1B         49.3630   -12.6950    67.5350 O.co2        1 GDP401   0.0000
     3 O2B         49.6910   -13.7010    69.8080 O.co2        1 GDP401  -1.0000
     4 O3B         47.4570   -13.8520    68.5980 O.co2        1 GDP401  -1.0000
     5 O3A         49.4120   -15.2090    67.7810 O.3          1 GDP401   0.0000
     6 PA          48.6060   -16.0510    66.6820 P.3          1 GDP401   0.0000
     7 O1A         48.1230   -15.1400    65.5670 O.co2        1 GDP401   0.0000
     8 O2A         47.4730   -16.7370    67.4080 O.co2        1 GDP401  -1.0000
     9 O5'         49.7240   -17.0710    66.1400 O.3          1 GDP401   0.0000
    10 C5'         50.4370   -16.7210    64.9530 C.3          1 GDP401   0.0000
    11 C4'         51.0140   -18.0040    64.4070 C.3          1 GDP401   0.0000
    12 O4'         51.4920   -18.8200    65.5150 O.3          1 GDP401   0.0000
    13 C3'         49.9090   -18.8040    63.7120 C.3          1 GDP401   0.0000
    14 O3'         50.3910   -19.2760    62.4440 O.3          1 GDP401   0.0000
    15 C2'         49.6330   -19.9730    64.6640 C.3          1 GDP401   0.0000
    16 O2'         49.2740   -21.1450    63.9280 O.3          1 GDP401   0.0000
    17 C1'         51.0110   -20.1260    65.3010 C.3          1 GDP401   0.0000
    18 N9          50.8600   -20.8850    66.5730 N.pl3        1 GDP401   0.0000
    19 C8          50.0290   -20.5950    67.5930 C.2          1 GDP401   0.0000
    20 N7          50.1280   -21.4910    68.6090 N.2          1 GDP401   0.0000
    21 C5          51.0930   -22.3990    68.1870 C.2          1 GDP401   0.0000
    22 C6          51.6880   -23.6220    68.7800 C.2          1 GDP401   0.0000
    23 O6          51.4060   -24.1060    69.8960 O.2          1 GDP401   0.0000
    24 N1          52.6540   -24.2500    68.0100 N.pl3        1 GDP401   0.0000
    25 C2          53.0280   -23.7960    66.7950 C.2          1 GDP401   0.0000
    26 N2          53.9600   -24.4890    66.1520 N.pl3        1 GDP401   0.0000
    27 N3          52.5050   -22.6940    66.2100 N.2          1 GDP401   0.0000
    28 C4          51.5510   -22.0300    66.9280 C.2          1 GDP401   0.0000
    29 H5'1        51.1704   -16.0761    65.1678 H            1 GDP401   0.0000
    30 H5'2        49.8163   -16.3096    64.2856 H            1 GDP401   0.0000
    31 H4'         51.7590   -17.8091    63.7691 H            1 GDP401   0.0000
    32 H3'         49.0890   -18.2442    63.5924 H            1 GDP401   0.0000
    33 H5          50.3571   -20.2753    62.4255 H            1 GDP401   0.0000
    34 H2'         48.9378   -19.7379    65.3433 H            1 GDP401   0.0000
    35 H7          49.5640   -21.9578    64.4333 H            1 GDP401   0.0000
    36 H1'         51.6217   -20.6176    64.6802 H            1 GDP401   0.0000
    37 H9          49.4099   -19.8097    67.6012 H            1 GDP401   0.0000
    38 H10         53.0923   -25.0738    68.3694 H            1 GDP401   0.0000
    39 H11         54.2699   -24.1920    65.2488 H            1 GDP401   0.0000
    40 H12         54.3522   -25.3080    66.5708 H            1 GDP401   0.0000
@<TRIPOS>BOND
     1    1    2      ar
     2    1    3      ar
     3    1    4      ar
     4    1    5       1
     5    5    6       1
     6    6    7      ar
     7    6    8      ar
     8    6    9       1
     9    9   10       1
    10   10   11       1
    11   11   12       1
    12   11   13       1
    13   12   17       1
    14   13   14       1
    15   13   15       1
    16   15   16       1
    17   15   17       1
    18   17   18       1
    19   18   19       1
    20   18   28       1
    21   19   20       2
    22   20   21       1
    23   21   22       1
    24   21   28       2
    25   22   23       2
    26   22   24       1
    27   24   25       1
    28   25   26       1
    29   25   27       2
    30   27   28       1
    31   26   40       1
    32   26   39       1
    33   24   38       1
    34   10   29       1
    35   10   30       1
    36   11   31       1
    37   13   32       1
    38   14   33       1
    39   15   34       1
    40   16   35       1
    41   17   36       1
    42   19   37       1
@<TRIPOS>SUBSTRUCTURE
     1 GDP401      1 GROUP             4 B     GDP     0 **** GDP B 401
