@<TRIPOS>MOLECULE
4yzc_STU_1_ligand
   62    69     1     0     0
SMALL
NO_CHARGES


@<TRIPOS>ATOM
     1 O4         -20.0840    35.7080   -53.7190 O.3          1 STU1001   0.0000
     2 C25        -21.1110    34.6560   -53.5710 C.3          1 STU1001   0.0000
     3 C24        -21.3570    34.3920   -52.0680 C.3          1 STU1001   0.0000
     4 C23        -20.4600    35.2690   -51.2390 C.3          1 STU1001   0.0000
     5 C22        -19.0480    35.1280   -51.6700 C.3          1 STU1001   0.0000
     6 C21        -18.8770    35.7480   -53.0240 C.3          1 STU1001   0.0000
     7 C26        -18.5400    37.1870   -52.8960 C.3          1 STU1001   0.0000
     8 N2         -17.8440    35.0410   -53.7670 N.pl3        1 STU1001   0.0000
     9 C18        -18.1370    33.8880   -54.5310 C.ar         1 STU1001   0.0000
    10 C19        -19.3030    33.2340   -54.7310 C.ar         1 STU1001   0.0000
    11 C6         -19.3970    32.0670   -55.5440 C.ar         1 STU1001   0.0000
    12 C7         -18.2090    31.6060   -56.1510 C.ar         1 STU1001   0.0000
    13 C10        -17.0400    32.2680   -55.9470 C.ar         1 STU1001   0.0000
    14 C11        -16.9770    33.4160   -55.1370 C.ar         1 STU1001   0.0000
    15 C12        -15.9080    34.2830   -54.7620 C.ar         1 STU1001   0.0000
    16 C17        -16.4300    35.2780   -53.9240 C.ar         1 STU1001   0.0000
    17 C16        -15.5970    36.2630   -53.4120 C.ar         1 STU1001   0.0000
    18 C15        -14.2280    36.2680   -53.7270 C.ar         1 STU1001   0.0000
    19 C14        -13.6970    35.2710   -54.5670 C.ar         1 STU1001   0.0000
    20 C13        -14.5500    34.2800   -55.0830 C.ar         1 STU1001   0.0000
    21 C9         -15.8720    31.5890   -56.7100 C.3          1 STU1001   0.0000
    22 N1         -16.5590    30.4170   -57.3000 N.am         1 STU1001   0.0000
    23 C8         -17.9540    30.5300   -56.9890 C.2          1 STU1001   0.0000
    24 O5         -18.8780    29.6180   -57.5260 O.2          1 STU1001   0.0000
    25 C5         -20.7610    31.6280   -55.5410 C.ar         1 STU1001   0.0000
    26 C20        -21.5060    32.4880   -54.7530 C.ar         1 STU1001   0.0000
    27 C1         -22.8610    32.3370   -54.5410 C.ar         1 STU1001   0.0000
    28 C2         -23.5440    31.2830   -55.1410 C.ar         1 STU1001   0.0000
    29 C3         -22.8350    30.3860   -55.9540 C.ar         1 STU1001   0.0000
    30 C4         -21.4440    30.5570   -56.1540 C.ar         1 STU1001   0.0000
    31 N3         -20.6630    33.5280   -54.1820 N.pl3        1 STU1001   0.0000
    32 O6         -18.7030    33.7370   -51.7040 O.3          1 STU1001   0.0000
    33 C27        -17.3810    33.4220   -51.2370 C.3          1 STU1001   0.0000
    34 N4         -20.5630    34.8870   -49.8390 N.4          1 STU1001   1.0000
    35 C28        -20.2220    36.0080   -48.9880 C.3          1 STU1001   0.0000
    36 H1         -21.9620    34.9554   -54.0024 H            1 STU1001   0.0000
    37 H2         -21.1627    33.4325   -51.8640 H            1 STU1001   0.0000
    38 H3         -22.3117    34.5928   -51.8483 H            1 STU1001   0.0000
    39 H4         -20.7431    36.2225   -51.3427 H            1 STU1001   0.0000
    40 H5         -18.4557    35.5981   -51.0156 H            1 STU1001   0.0000
    41 H6         -17.6761    37.2844   -52.4018 H            1 STU1001   0.0000
    42 H7         -18.4504    37.5906   -53.8065 H            1 STU1001   0.0000
    43 H8         -19.2663    37.6560   -52.3934 H            1 STU1001   0.0000
    44 H9         -15.9731    36.9725   -52.8161 H            1 STU1001   0.0000
    45 H10        -13.6313    36.9790   -53.3549 H            1 STU1001   0.0000
    46 H11        -12.7232    35.2678   -54.7943 H            1 STU1001   0.0000
    47 H12        -14.1819    33.5696   -55.6829 H            1 STU1001   0.0000
    48 H13        -15.1404    31.3104   -56.0878 H            1 STU1001   0.0000
    49 H14        -15.4978    32.1891   -57.4170 H            1 STU1001   0.0000
    50 H15        -16.1279    29.6803   -57.8209 H            1 STU1001   0.0000
    51 H16        -23.3516    32.9838   -53.9572 H            1 STU1001   0.0000
    52 H17        -24.5264    31.1668   -54.9946 H            1 STU1001   0.0000
    53 H18        -23.3128    29.6249   -56.3927 H            1 STU1001   0.0000
    54 H19        -20.9426    29.9145   -56.7335 H            1 STU1001   0.0000
    55 H20        -17.2324    32.4350   -51.2978 H            1 STU1001   0.0000
    56 H21        -16.7060    33.8962   -51.8023 H            1 STU1001   0.0000
    57 H22        -17.2847    33.7156   -50.2859 H            1 STU1001   0.0000
    58 H23        -19.9351    34.1305   -49.6560 H            1 STU1001   0.0000
    59 H24        -20.2964    35.7335   -48.0293 H            1 STU1001   0.0000
    60 H25        -19.2847    36.2990   -49.1796 H            1 STU1001   0.0000
    61 H26        -20.8495    36.7657   -49.1674 H            1 STU1001   0.0000
    62 H27        -21.5000    34.5972   -49.6438 H            1 STU1001   0.0000
@<TRIPOS>BOND
     1    1    2       1
     2    1    6       1
     3    2    3       1
     4    2   31       1
     5    3    4       1
     6    4    5       1
     7    4   34       1
     8    5    6       1
     9    5   32       1
    10    6    7       1
    11    6    8       1
    12    8    9       1
    13    8   16       1
    14    9   10      ar
    15    9   14      ar
    16   10   11      ar
    17   10   31       1
    18   11   12      ar
    19   11   25       1
    20   12   13      ar
    21   12   23       1
    22   13   14      ar
    23   13   21       1
    24   14   15       1
    25   15   16      ar
    26   15   20      ar
    27   16   17      ar
    28   17   18      ar
    29   18   19      ar
    30   19   20      ar
    31   21   22       1
    32   22   23      am
    33   23   24       2
    34   25   26      ar
    35   25   30      ar
    36   26   27      ar
    37   26   31       1
    38   27   28      ar
    39   28   29      ar
    40   29   30      ar
    41   32   33       1
    42   34   35       1
    43    2   36       1
    44    3   37       1
    45    3   38       1
    46    4   39       1
    47    5   40       1
    48    7   41       1
    49    7   42       1
    50    7   43       1
    51   17   44       1
    52   18   45       1
    53   19   46       1
    54   20   47       1
    55   21   48       1
    56   21   49       1
    57   22   50       1
    58   27   51       1
    59   28   52       1
    60   29   53       1
    61   30   54       1
    62   33   55       1
    63   33   56       1
    64   33   57       1
    65   34   58       1
    66   35   59       1
    67   35   60       1
    68   35   61       1
    69   34   62       1
@<TRIPOS>SUBSTRUCTURE
     1 STU1001     1 GROUP             4 A     STU     0 **** STU A1001
