@<TRIPOS>MOLECULE
3sx2_NAD_7_ligand
   70    74     1     0     0
SMALL
NO_CHARGES


@<TRIPOS>ATOM
     1 PA         -15.9210   119.0880    57.8980 P.3          1 NAD300   0.0000
     2 O1A        -14.6740   118.3600    58.0860 O.co2        1 NAD300   0.0000
     3 O2A        -15.7920   120.5710    57.4720 O.co2        1 NAD300  -1.0000
     4 O5B        -16.8460   119.0330    59.2280 O.3          1 NAD300   0.0000
     5 C5B        -16.9100   117.9070    60.0680 C.3          1 NAD300   0.0000
     6 C4B        -16.7820   118.4600    61.4780 C.3          1 NAD300   0.0000
     7 O4B        -16.8210   117.3610    62.4050 O.3          1 NAD300   0.0000
     8 C3B        -15.5690   119.2880    61.8810 C.3          1 NAD300   0.0000
     9 O3B        -15.7620   120.5550    62.4820 O.3          1 NAD300   0.0000
    10 C2B        -14.7920   118.3760    62.7150 C.3          1 NAD300   0.0000
    11 O2B        -13.8260   118.8760    63.5980 O.3          1 NAD300   0.0000
    12 C1B        -15.8200   117.5270    63.4440 C.3          1 NAD300   0.0000
    13 N9A        -15.5330   116.2570    63.9750 N.pl3        1 NAD300   0.0000
    14 C8A        -14.7700   115.2840    63.3410 C.2          1 NAD300   0.0000
    15 N7A        -14.5740   114.2170    64.1670 N.2          1 NAD300   0.0000
    16 C5A        -15.2410   114.5510    65.3650 C.ar         1 NAD300   0.0000
    17 C6A        -15.3670   113.8830    66.5960 C.ar         1 NAD300   0.0000
    18 N6A        -14.7480   112.6380    66.8590 N.pl3        1 NAD300   0.0000
    19 N1A        -16.1720   114.4320    67.5570 N.ar         1 NAD300   0.0000
    20 C2A        -16.7590   115.7100    67.3290 C.ar         1 NAD300   0.0000
    21 N3A        -16.5920   116.4190    66.1950 N.ar         1 NAD300   0.0000
    22 C4A        -15.8000   115.8140    65.2190 C.ar         1 NAD300   0.0000
    23 O3         -16.7680   118.2520    56.7730 O.3          1 NAD300   0.0000
    24 PN         -18.3470   118.3010    56.4780 P.3          1 NAD300   0.0000
    25 O1N        -18.4540   118.1270    55.0070 O.co2        1 NAD300   0.0000
    26 O2N        -19.0390   119.5370    57.0910 O.co2        1 NAD300  -1.0000
    27 O5D        -18.7800   116.9410    57.2690 O.3          1 NAD300   0.0000
    28 C5D        -20.1240   116.8760    57.8080 C.3          1 NAD300   0.0000
    29 C4D        -20.6860   115.4980    57.5660 C.3          1 NAD300   0.0000
    30 O4D        -21.0870   115.4410    56.1450 O.3          1 NAD300   0.0000
    31 C3D        -19.8040   114.2690    57.8340 C.3          1 NAD300   0.0000
    32 O3D        -20.5630   113.2810    58.4890 O.3          1 NAD300   0.0000
    33 C2D        -19.3510   113.8550    56.4790 C.3          1 NAD300   0.0000
    34 O2D        -18.9730   112.4850    56.4530 O.3          1 NAD300   0.0000
    35 C1D        -20.5830   114.1640    55.7090 C.3          1 NAD300   0.0000
    36 N1N        -20.5250   114.2040    54.2500 N.ar         1 NAD300   1.0000
    37 C2N        -19.6080   115.1050    53.6430 C.ar         1 NAD300   0.0000
    38 C3N        -19.5790   115.2390    52.2270 C.ar         1 NAD300   0.0000
    39 C7N        -18.6410   116.2170    51.5860 C.2          1 NAD300   0.0000
    40 O7N        -18.4960   116.1750    50.3940 O.2          1 NAD300   0.0000
    41 N7N        -18.0540   117.2320    52.3740 N.am         1 NAD300   0.0000
    42 C4N        -20.4710   114.4930    51.3670 C.ar         1 NAD300   0.0000
    43 C5N        -21.4360   113.6530    52.0410 C.ar         1 NAD300   0.0000
    44 C6N        -21.4140   113.5140    53.4800 C.ar         1 NAD300   0.0000
    45 H5B1       -16.1599   117.2765    59.8683 H            1 NAD300   0.0000
    46 H5B2       -17.7831   117.4329    59.9543 H            1 NAD300   0.0000
    47 H4B        -17.5923   119.0203    61.6501 H            1 NAD300   0.0000
    48 H3B        -15.0361   119.4421    61.0489 H            1 NAD300   0.0000
    49 H5         -16.2801   120.4461    63.3304 H            1 NAD300   0.0000
    50 H2B        -14.3113   117.7617    62.0893 H            1 NAD300   0.0000
    51 H7         -14.2620   119.4894    64.2565 H            1 NAD300   0.0000
    52 H1B        -16.2199   118.0834    64.1724 H            1 NAD300   0.0000
    53 H8A        -14.4144   115.3562    62.4092 H            1 NAD300   0.0000
    54 H6A1       -14.8656   112.1995    67.7500 H            1 NAD300   0.0000
    55 H6A2       -14.1930   112.1967    66.1539 H            1 NAD300   0.0000
    56 H2A        -17.3274   116.1034    68.0516 H            1 NAD300   0.0000
    57 H5D1       -20.6997   117.5568    57.3552 H            1 NAD300   0.0000
    58 H5D2       -20.1001   117.0601    58.7906 H            1 NAD300   0.0000
    59 H4D        -21.5135   115.4053    58.1197 H            1 NAD300   0.0000
    60 H3D        -19.0175   114.5264    58.3954 H            1 NAD300   0.0000
    61 H17        -21.5203   113.3567    58.2101 H            1 NAD300   0.0000
    62 H2D        -18.5939   114.4319    56.1726 H            1 NAD300   0.0000
    63 H19        -18.2235   112.3337    57.0975 H            1 NAD300   0.0000
    64 H1D        -21.2659   113.4772    55.9579 H            1 NAD300   0.0000
    65 H2N        -18.9847   115.6434    54.2101 H            1 NAD300   0.0000
    66 H7N1       -17.4269   117.8895    51.9563 H            1 NAD300   0.0000
    67 H7N2       -18.2656   117.2930    53.3495 H            1 NAD300   0.0000
    68 H4N        -20.4235   114.5542    50.3700 H            1 NAD300   0.0000
    69 H5N        -22.1252   113.1635    51.5067 H            1 NAD300   0.0000
    70 H6N        -22.0661   112.8973    53.9209 H            1 NAD300   0.0000
@<TRIPOS>BOND
     1    1    2      ar
     2    1    3      ar
     3    1    4       1
     4    1   23       1
     5    4    5       1
     6    5    6       1
     7    6    7       1
     8    6    8       1
     9    7   12       1
    10    8    9       1
    11    8   10       1
    12   10   11       1
    13   10   12       1
    14   12   13       1
    15   13   14       1
    16   13   22       1
    17   14   15       2
    18   15   16       1
    19   16   17      ar
    20   16   22      ar
    21   17   18       1
    22   17   19      ar
    23   19   20      ar
    24   20   21      ar
    25   21   22      ar
    26   23   24       1
    27   24   25      ar
    28   24   26      ar
    29   24   27       1
    30   27   28       1
    31   28   29       1
    32   29   30       1
    33   29   31       1
    34   30   35       1
    35   31   32       1
    36   31   33       1
    37   33   34       1
    38   33   35       1
    39   35   36       1
    40   36   37      ar
    41   36   44      ar
    42   37   38      ar
    43   38   39       1
    44   38   42      ar
    45   39   40       2
    46   39   41      am
    47   42   43      ar
    48   43   44      ar
    49   44   70       1
    50    5   45       1
    51    5   46       1
    52    6   47       1
    53    8   48       1
    54    9   49       1
    55   10   50       1
    56   11   51       1
    57   12   52       1
    58   14   53       1
    59   18   54       1
    60   18   55       1
    61   20   56       1
    62   43   69       1
    63   28   57       1
    64   28   58       1
    65   29   59       1
    66   31   60       1
    67   32   61       1
    68   33   62       1
    69   34   63       1
    70   35   64       1
    71   37   65       1
    72   41   66       1
    73   41   67       1
    74   42   68       1
@<TRIPOS>SUBSTRUCTURE
     1 NAD300      1 GROUP             4 G     NAD     0 **** NAD G 300
