@<TRIPOS>MOLECULE
4qq3_XMP_1_ligand
   35    37     1     0     0
SMALL
NO_CHARGES


@<TRIPOS>ATOM
     1 P           -3.7590    31.3100    10.4170 P.3          1 XMP501   0.0000
     2 O1P         -3.4070    32.6470    11.0020 O.co2        1 XMP501   0.0000
     3 O2P         -2.6920    30.2450    10.6550 O.co2        1 XMP501  -1.0000
     4 O5'         -5.0310    30.7610    11.2760 O.3          1 XMP501   0.0000
     5 O3P         -4.2190    31.3890     8.9530 O.co2        1 XMP501  -1.0000
     6 C5'         -5.4560    29.4090    11.2100 C.3          1 XMP501   0.0000
     7 C4'         -6.6240    29.2670    12.1810 C.3          1 XMP501   0.0000
     8 O4'         -7.6820    30.2040    11.8620 O.3          1 XMP501   0.0000
     9 C1'         -8.8780    29.6600    12.4090 C.3          1 XMP501   0.0000
    10 N9          -9.9480    29.7670    11.3970 N.pl3        1 XMP501   0.0000
    11 C4         -10.6120    30.8870    11.1550 C.2          1 XMP501   0.0000
    12 N3         -10.5650    32.1250    11.6400 N.pl3        1 XMP501   0.0000
    13 N1         -12.3150    32.8170    10.1970 N.pl3        1 XMP501   0.0000
    14 C2         -11.4040    33.0750    11.1780 C.2          1 XMP501   0.0000
    15 O2         -11.2920    34.2450    11.6300 O.2          1 XMP501   0.0000
    16 C6         -12.4670    31.6150     9.6440 C.2          1 XMP501   0.0000
    17 O6         -13.3220    31.3350     8.7590 O.2          1 XMP501   0.0000
    18 C5         -11.5650    30.5630    10.0950 C.2          1 XMP501   0.0000
    19 N7         -11.4210    29.2760     9.8280 N.2          1 XMP501   0.0000
    20 C8         -10.4160    28.7940    10.5930 C.2          1 XMP501   0.0000
    21 C2'         -8.5910    28.2310    12.9110 C.3          1 XMP501   0.0000
    22 O2'         -8.4000    28.2600    14.3480 O.3          1 XMP501   0.0000
    23 C3'         -7.3020    27.8880    12.1670 C.3          1 XMP501   0.0000
    24 O3'         -6.5240    26.7980    12.7080 O.3          1 XMP501   0.0000
    25 H5'1        -4.7095    28.7999    11.4778 H            1 XMP501   0.0000
    26 H5'2        -5.7514    29.1858    10.2810 H            1 XMP501   0.0000
    27 H4'         -6.2967    29.4549    13.1071 H            1 XMP501   0.0000
    28 H1'         -9.1399    30.2179    13.1965 H            1 XMP501   0.0000
    29 H5          -9.9021    32.3532    12.3531 H            1 XMP501   0.0000
    30 H6         -12.8963    33.5654     9.8777 H            1 XMP501   0.0000
    31 H7         -10.0719    27.8555    10.5657 H            1 XMP501   0.0000
    32 H2'         -9.3295    27.6058    12.6586 H            1 XMP501   0.0000
    33 H9          -7.7707    27.5303    14.6154 H            1 XMP501   0.0000
    34 H3'         -7.5371    27.6649    11.2210 H            1 XMP501   0.0000
    35 H11         -5.9106    27.1460    13.4170 H            1 XMP501   0.0000
@<TRIPOS>BOND
     1    1    2      ar
     2    1    3      ar
     3    1    4       1
     4    1    5      ar
     5    4    6       1
     6    6    7       1
     7    7    8       1
     8    7   23       1
     9    8    9       1
    10    9   10       1
    11    9   21       1
    12   10   11       1
    13   10   20       1
    14   11   12       1
    15   11   18       2
    16   12   14       1
    17   13   14       1
    18   13   16       1
    19   14   15       2
    20   16   17       2
    21   16   18       1
    22   18   19       1
    23   19   20       2
    24   21   22       1
    25   21   23       1
    26   23   24       1
    27   24   35       1
    28   23   34       1
    29    6   25       1
    30    6   26       1
    31    7   27       1
    32    9   28       1
    33   12   29       1
    34   13   30       1
    35   20   31       1
    36   21   32       1
    37   22   33       1
@<TRIPOS>SUBSTRUCTURE
     1 XMP501      1 GROUP             4 A     XMP     0 **** XMP A 501
