@<TRIPOS>MOLECULE
4k77_1Q4_1_ligand
   34    36     1     0     0
SMALL
NO_CHARGES


@<TRIPOS>ATOM
     1 C1           4.4790    58.3390     1.6080 C.2          1 1Q41201   0.0000
     2 C2           3.9710    59.5930     1.5440 C.2          1 1Q41201   0.0000
     3 N3           4.6390    60.6150     0.9120 N.pl3        1 1Q41201   0.0000
     4 C5           5.8570    60.4490     0.3300 C.2          1 1Q41201   0.0000
     5 O6           6.4230    61.3760    -0.2300 O.2          1 1Q41201   0.0000
     6 C7           6.4900    59.1280     0.3620 C.ar         1 1Q41201   0.0000
     7 C8           5.7860    58.0660     1.0000 C.ar         1 1Q41201   0.0000
     8 C9           6.3910    56.7860     1.0130 C.ar         1 1Q41201   0.0000
     9 N10          7.5860    56.6560     0.4240 N.ar         1 1Q41201   0.0000
    10 C11          8.1950    57.6780    -0.1690 C.ar         1 1Q41201   0.0000
    11 N12          7.6760    58.8890    -0.1970 N.ar         1 1Q41201   0.0000
    12 N13          5.7550    55.7130     1.6270 N.pl3        1 1Q41201   0.0000
    13 C14          6.4370    54.4290     1.7790 C.3          1 1Q41201   0.0000
    14 C15          7.0100    54.3240     3.1970 C.3          1 1Q41201   0.0000
    15 C16          7.5780    52.9130     3.4330 C.3          1 1Q41201   0.0000
    16 C17          6.5200    51.8280     3.1980 C.3          1 1Q41201   0.0000
    17 C18          6.0810    51.9170     1.7380 C.3          1 1Q41201   0.0000
    18 C19          5.4340    53.2960     1.5320 C.3          1 1Q41201   0.0000
    19 H1           3.9699    57.6088     2.0637 H            1 1Q41201   0.0000
    20 H2           3.0852    59.7807     1.9684 H            1 1Q41201   0.0000
    21 H3           4.2114    61.5184     0.8788 H            1 1Q41201   0.0000
    22 H4           9.0790    57.5223    -0.6098 H            1 1Q41201   0.0000
    23 H5           4.8212    55.8207     1.9682 H            1 1Q41201   0.0000
    24 H6           7.1809    54.3662     1.1137 H            1 1Q41201   0.0000
    25 H7           6.2846    54.5042     3.8613 H            1 1Q41201   0.0000
    26 H8           7.7402    54.9979     3.3097 H            1 1Q41201   0.0000
    27 H9           7.9040    52.8486     4.3762 H            1 1Q41201   0.0000
    28 H10          8.3417    52.7621     2.8053 H            1 1Q41201   0.0000
    29 H11          5.7359    51.9808     3.7995 H            1 1Q41201   0.0000
    30 H12          6.9104    50.9259     3.3820 H            1 1Q41201   0.0000
    31 H13          5.4184    51.1957     1.5363 H            1 1Q41201   0.0000
    32 H14          6.8740    51.8189     1.1367 H            1 1Q41201   0.0000
    33 H15          5.0965    53.3597     0.5928 H            1 1Q41201   0.0000
    34 H16          4.6691    53.3945     2.1685 H            1 1Q41201   0.0000
@<TRIPOS>BOND
     1    1    2       2
     2    1    7       1
     3    2    3       1
     4    3    4       1
     5    4    5       2
     6    4    6       1
     7    6    7      ar
     8    6   11      ar
     9    7    8      ar
    10    8    9      ar
    11    8   12       1
    12    9   10      ar
    13   10   11      ar
    14   12   13       1
    15   13   14       1
    16   13   18       1
    17   14   15       1
    18   15   16       1
    19   16   17       1
    20   17   18       1
    21    1   19       1
    22    2   20       1
    23    3   21       1
    24   10   22       1
    25   12   23       1
    26   13   24       1
    27   14   25       1
    28   14   26       1
    29   15   27       1
    30   15   28       1
    31   16   29       1
    32   16   30       1
    33   17   31       1
    34   17   32       1
    35   18   33       1
    36   18   34       1
@<TRIPOS>SUBSTRUCTURE
     1 1Q41201     1 GROUP             4 A     1Q4     0 **** 1Q4 A1201
