@<TRIPOS>MOLECULE
5bur_ATP_1_ligand
   43    45     1     0     0
SMALL
NO_CHARGES


@<TRIPOS>ATOM
     1 PG          67.9810   159.5790     9.8540 P.3          1 ATP506   0.0000
     2 O1G         68.8810   160.1710    10.8320 O.co2        1 ATP506   0.0000
     3 O2G         68.1070   158.0890     9.7810 O.co2        1 ATP506  -1.0000
     4 O3G         68.0760   160.2990     8.5710 O.co2        1 ATP506  -1.0000
     5 PB          65.4050   158.9750    10.8690 P.3          1 ATP506   0.0000
     6 O1B         65.3200   159.2870    12.2910 O.co2        1 ATP506   0.0000
     7 O2B         65.7030   157.5980    10.4360 O.co2        1 ATP506  -1.0000
     8 O3B         66.5070   159.9640    10.3280 O.3          1 ATP506   0.0000
     9 PA          62.9040   158.1310    10.0830 P.3          1 ATP506   0.0000
    10 O1A         63.4790   157.1890     9.1290 O.co2        1 ATP506   0.0000
    11 O2A         61.5730   158.6470     9.8170 O.co2        1 ATP506  -1.0000
    12 O3A         63.9690   159.3090    10.2750 O.3          1 ATP506   0.0000
    13 O5'         62.7850   157.4520    11.5010 O.3          1 ATP506   0.0000
    14 C5'         62.7570   156.0510    11.7380 C.3          1 ATP506   0.0000
    15 C4'         63.3950   155.6990    13.0850 C.3          1 ATP506   0.0000
    16 O4'         62.4490   155.7400    14.1350 O.3          1 ATP506   0.0000
    17 C3'         63.8880   154.2910    13.1800 C.3          1 ATP506   0.0000
    18 O3'         65.2310   154.2270    12.8070 O.3          1 ATP506   0.0000
    19 C2'         63.8390   153.9840    14.6340 C.3          1 ATP506   0.0000
    20 O2'         65.0480   154.4350    15.1650 O.3          1 ATP506   0.0000
    21 C1'         62.7480   154.8300    15.1770 C.3          1 ATP506   0.0000
    22 N9          61.5760   153.9790    15.4010 N.pl3        1 ATP506   0.0000
    23 C8          60.6120   153.8000    14.5200 C.2          1 ATP506   0.0000
    24 N7          59.6770   152.9750    14.9800 N.2          1 ATP506   0.0000
    25 C5          60.0360   152.6030    16.1860 C.ar         1 ATP506   0.0000
    26 C6          59.4730   151.7360    17.2030 C.ar         1 ATP506   0.0000
    27 N6          58.3120   151.0880    17.0260 N.pl3        1 ATP506   0.0000
    28 N1          60.1490   151.6060    18.3220 N.ar         1 ATP506   0.0000
    29 C2          61.2900   152.2310    18.5240 C.ar         1 ATP506   0.0000
    30 N3          61.8480   153.0260    17.6380 N.ar         1 ATP506   0.0000
    31 C4          61.2830   153.2590    16.4620 C.ar         1 ATP506   0.0000
    32 H5'1        63.2603   155.5876    11.0087 H            1 ATP506   0.0000
    33 H5'2        61.8066   155.7398    11.7370 H            1 ATP506   0.0000
    34 H4'         64.1436   156.3328    13.2800 H            1 ATP506   0.0000
    35 H3'         63.3228   153.6615    12.6469 H            1 ATP506   0.0000
    36 H5          65.6789   153.4814    13.3005 H            1 ATP506   0.0000
    37 H2'         63.6874   153.0115    14.8106 H            1 ATP506   0.0000
    38 H7          65.7240   153.6991    15.1268 H            1 ATP506   0.0000
    39 H1'         63.0273   155.3029    16.0127 H            1 ATP506   0.0000
    40 H9          60.5873   154.2311    13.6181 H            1 ATP506   0.0000
    41 H10         57.9534   150.4979    17.7493 H            1 ATP506   0.0000
    42 H11         57.8050   151.1950    16.1707 H            1 ATP506   0.0000
    43 H12         61.7569   152.0938    19.3976 H            1 ATP506   0.0000
@<TRIPOS>BOND
     1    1    2      ar
     2    1    3      ar
     3    1    4      ar
     4    1    8       1
     5    5    6      ar
     6    5    7      ar
     7    5    8       1
     8    5   12       1
     9    9   10      ar
    10    9   11      ar
    11    9   12       1
    12    9   13       1
    13   13   14       1
    14   14   15       1
    15   15   16       1
    16   15   17       1
    17   16   21       1
    18   17   18       1
    19   17   19       1
    20   19   20       1
    21   19   21       1
    22   21   22       1
    23   22   23       1
    24   22   31       1
    25   23   24       2
    26   24   25       1
    27   25   26      ar
    28   25   31      ar
    29   26   27       1
    30   26   28      ar
    31   28   29      ar
    32   29   30      ar
    33   30   31      ar
    34   29   43       1
    35   27   42       1
    36   27   41       1
    37   23   40       1
    38   14   32       1
    39   14   33       1
    40   15   34       1
    41   17   35       1
    42   18   36       1
    43   19   37       1
    44   20   38       1
    45   21   39       1
@<TRIPOS>SUBSTRUCTURE
     1 ATP506      1 GROUP             4 A     ATP     0 **** ATP A 506
