@<TRIPOS>MOLECULE
2cul_FAD_1_ligand
   84    89     1     0     0
SMALL
NO_CHARGES


@<TRIPOS>ATOM
     1 PA          54.4640    35.0260     3.7490 P.3          1 FAD301   0.0000
     2 O1A         54.6010    33.5630     3.6710 O.co2        1 FAD301   0.0000
     3 O2A         55.5360    35.8950     3.1980 O.co2        1 FAD301  -1.0000
     4 O5B         54.2510    35.4560     5.2700 O.3          1 FAD301   0.0000
     5 C5B         53.2740    34.7920     6.0740 C.3          1 FAD301   0.0000
     6 C4B         53.7060    35.0100     7.5190 C.3          1 FAD301   0.0000
     7 O4B         52.5930    34.6650     8.3440 O.3          1 FAD301   0.0000
     8 C3B         54.8800    34.1210     7.9760 C.3          1 FAD301   0.0000
     9 O3B         55.8940    34.8680     8.6130 O.3          1 FAD301   0.0000
    10 C2B         54.2170    33.1200     8.8750 C.3          1 FAD301   0.0000
    11 O2B         55.0500    32.4940     9.8230 O.3          1 FAD301   0.0000
    12 C1B         53.0860    33.9540     9.4700 C.3          1 FAD301   0.0000
    13 N9A         51.9770    33.1860    10.0310 N.pl3        1 FAD301   0.0000
    14 C8A         51.1770    32.2810     9.3730 C.2          1 FAD301   0.0000
    15 N7A         50.2530    31.7550    10.1680 N.2          1 FAD301   0.0000
    16 C5A         50.4700    32.3530    11.3940 C.ar         1 FAD301   0.0000
    17 C6A         49.8190    32.2130    12.6430 C.ar         1 FAD301   0.0000
    18 N6A         48.7930    31.4070    12.8510 N.pl3        1 FAD301   0.0000
    19 N1A         50.2950    32.9750    13.6980 N.ar         1 FAD301   0.0000
    20 C2A         51.3620    33.8240    13.5100 C.ar         1 FAD301   0.0000
    21 N3A         52.0260    33.9990    12.3370 N.ar         1 FAD301   0.0000
    22 C4A         51.5430    33.2420    11.3150 C.ar         1 FAD301   0.0000
    23 N1          56.8140    34.4880    -5.1640 N.2          1 FAD301   0.0000
    24 C2          57.9440    35.0010    -5.7590 C.2          1 FAD301   0.0000
    25 O2          57.9850    36.1460    -6.1390 O.2          1 FAD301   0.0000
    26 N3          59.0580    34.1620    -5.9150 N.pl3        1 FAD301   0.0000
    27 C4          59.1010    32.8440    -5.5140 C.2          1 FAD301   0.0000
    28 O4          60.1290    32.1540    -5.6840 O.2          1 FAD301   0.0000
    29 C4X         57.9410    32.3180    -4.9080 C.2          1 FAD301   0.0000
    30 N5          57.9060    30.9960    -4.4860 N.2          1 FAD301   0.0000
    31 C5X         56.7720    30.4740    -3.8920 C.ar         1 FAD301   0.0000
    32 C6          56.7620    29.1430    -3.4770 C.ar         1 FAD301   0.0000
    33 C7          55.6400    28.5580    -2.8600 C.ar         1 FAD301   0.0000
    34 C7M         55.7010    27.1130    -2.4310 C.3          1 FAD301   0.0000
    35 C8          54.4710    29.3760    -2.6580 C.ar         1 FAD301   0.0000
    36 C8M         53.2320    28.8320    -1.9990 C.3          1 FAD301   0.0000
    37 C9          54.4620    30.7280    -3.0800 C.ar         1 FAD301   0.0000
    38 C9A         55.6000    31.3080    -3.7010 C.ar         1 FAD301   0.0000
    39 N10         55.6370    32.6780    -4.1430 N.pl3        1 FAD301   0.0000
    40 C10         56.8040    33.1800    -4.7470 C.2          1 FAD301   0.0000
    41 C1'         54.4430    33.6030    -3.9930 C.3          1 FAD301   0.0000
    42 C2'         54.4790    34.7050    -2.9100 C.3          1 FAD301   0.0000
    43 O2'         55.3040    35.7540    -3.3410 O.3          1 FAD301   0.0000
    44 C3'         54.9860    34.1890    -1.5480 C.3          1 FAD301   0.0000
    45 O3'         54.1700    33.1240    -1.0630 O.3          1 FAD301   0.0000
    46 C4'         54.9810    35.2750    -0.4530 C.3          1 FAD301   0.0000
    47 O4'         55.7250    34.8510     0.6870 O.3          1 FAD301   0.0000
    48 C5'         53.5220    35.5890    -0.0680 C.3          1 FAD301   0.0000
    49 O5'         53.5000    36.6350     0.9170 O.3          1 FAD301   0.0000
    50 P           52.5590    36.5900     2.1920 P.3          1 FAD301   0.0000
    51 O1P         52.8210    37.8620     2.8860 O.co2        1 FAD301   0.0000
    52 O2P         51.1340    36.3240     1.7980 O.co2        1 FAD301  -1.0000
    53 O3P         53.0540    35.3600     3.0410 O.3          1 FAD301   0.0000
    54 H5B1        53.2531    33.8153     5.8606 H            1 FAD301   0.0000
    55 H5B2        52.3685    35.1867     5.9181 H            1 FAD301   0.0000
    56 H4B         53.9404    35.9722     7.6574 H            1 FAD301   0.0000
    57 H3B         55.2655    33.6490     7.1831 H            1 FAD301   0.0000
    58 H5          56.5578    35.1774     7.9321 H            1 FAD301   0.0000
    59 H2B         53.8101    32.4090     8.3015 H            1 FAD301   0.0000
    60 H7          55.4489    33.1860    10.4247 H            1 FAD301   0.0000
    61 H1B         53.4464    34.5909    10.1515 H            1 FAD301   0.0000
    62 H8A         51.2796    32.0461     8.4064 H            1 FAD301   0.0000
    63 H6A1        48.3757    31.3527    13.7581 H            1 FAD301   0.0000
    64 H6A2        48.4337    30.8513    12.1013 H            1 FAD301   0.0000
    65 H2A         51.6733    34.3540    14.2988 H            1 FAD301   0.0000
    66 H13         59.8748    34.5458    -6.3457 H            1 FAD301   0.0000
    67 H14         57.5792    28.5853    -3.6225 H            1 FAD301   0.0000
    68 H7M1        54.8308    26.8524    -2.0129 H            1 FAD301   0.0000
    69 H7M2        55.8737    26.5354    -3.2289 H            1 FAD301   0.0000
    70 H7M3        56.4389    26.9933    -1.7668 H            1 FAD301   0.0000
    71 H8M1        52.5371    29.5496    -1.9519 H            1 FAD301   0.0000
    72 H8M2        52.8810    28.0626    -2.5327 H            1 FAD301   0.0000
    73 H8M3        53.4547    28.5224    -1.0746 H            1 FAD301   0.0000
    74 H21         53.6420    31.2826    -2.9386 H            1 FAD301   0.0000
    75 H1'1        53.6490    33.0271    -3.7985 H            1 FAD301   0.0000
    76 H1'2        54.3151    34.0610    -4.8727 H            1 FAD301   0.0000
    77 H2'         53.5521    35.0604    -2.7889 H            1 FAD301   0.0000
    78 H25         56.0202    35.3914    -3.9373 H            1 FAD301   0.0000
    79 H3'         55.9205    33.8514    -1.6606 H            1 FAD301   0.0000
    80 H27         54.1728    33.1307    -0.0630 H            1 FAD301   0.0000
    81 H4'         55.4017    36.1042    -0.8210 H            1 FAD301   0.0000
    82 H29         55.3429    35.2717     1.5098 H            1 FAD301   0.0000
    83 H5'1        53.0926    34.7680     0.3083 H            1 FAD301   0.0000
    84 H5'2        53.0196    35.8856    -0.8802 H            1 FAD301   0.0000
@<TRIPOS>BOND
     1    1    2      ar
     2    1    3      ar
     3    1    4       1
     4    1   53       1
     5    4    5       1
     6    5    6       1
     7    6    7       1
     8    6    8       1
     9    7   12       1
    10    8    9       1
    11    8   10       1
    12   10   11       1
    13   10   12       1
    14   12   13       1
    15   13   14       1
    16   13   22       1
    17   14   15       2
    18   15   16       1
    19   16   17      ar
    20   16   22      ar
    21   17   18       1
    22   17   19      ar
    23   19   20      ar
    24   20   21      ar
    25   21   22      ar
    26   23   24       1
    27   23   40       2
    28   24   25       2
    29   24   26       1
    30   26   27       1
    31   27   28       2
    32   27   29       1
    33   29   30       2
    34   29   40       1
    35   30   31       1
    36   31   32      ar
    37   31   38      ar
    38   32   33      ar
    39   33   34       1
    40   33   35      ar
    41   35   36       1
    42   35   37      ar
    43   37   38      ar
    44   38   39       1
    45   39   40       1
    46   39   41       1
    47   41   42       1
    48   42   43       1
    49   42   44       1
    50   44   45       1
    51   44   46       1
    52   46   47       1
    53   46   48       1
    54   48   49       1
    55   49   50       1
    56   50   51      ar
    57   50   52      ar
    58   50   53       1
    59   48   84       1
    60    5   54       1
    61    5   55       1
    62    6   56       1
    63    8   57       1
    64    9   58       1
    65   10   59       1
    66   11   60       1
    67   12   61       1
    68   14   62       1
    69   18   63       1
    70   18   64       1
    71   20   65       1
    72   26   66       1
    73   32   67       1
    74   34   68       1
    75   34   69       1
    76   34   70       1
    77   36   71       1
    78   36   72       1
    79   36   73       1
    80   37   74       1
    81   41   75       1
    82   41   76       1
    83   42   77       1
    84   43   78       1
    85   44   79       1
    86   45   80       1
    87   46   81       1
    88   47   82       1
    89   48   83       1
@<TRIPOS>SUBSTRUCTURE
     1 FAD301      1 GROUP             4 A     FAD     0 **** FAD A 301
