@<TRIPOS>MOLECULE
3e9h_KAA_4_ligand
   60    62     1     0     0
SMALL
NO_CHARGES


@<TRIPOS>ATOM
     1 NZ          33.9600  -115.3920    24.6460 N.4          1 KAA2005   1.0000
     2 CE          35.4000  -115.6930    24.7030 C.3          1 KAA2005   0.0000
     3 CD          35.6280  -117.1750    25.0080 C.3          1 KAA2005   0.0000
     4 CG          35.0110  -117.5680    26.3520 C.3          1 KAA2005   0.0000
     5 CB          35.2100  -119.0600    26.6320 C.3          1 KAA2005   0.0000
     6 CA          34.2850  -119.9340    25.7790 C.3          1 KAA2005   0.0000
     7 N           32.9100  -119.7100    26.2460 N.4          1 KAA2005   1.0000
     8 C           34.6880  -121.3850    26.0450 C.2          1 KAA2005   0.0000
     9 O           33.8730  -122.1870    26.5030 O.2          1 KAA2005   0.0000
    10 N8          35.7850  -121.7470    25.3910 N.am         1 KAA2005   0.0000
    11 S1          36.5470  -123.1670    25.6300 S.o2         1 KAA2005   0.0000
    12 O1S         35.7090  -124.2600    25.0420 O.2          1 KAA2005   0.0000
    13 O2S         37.8840  -123.0650    24.9610 O.2          1 KAA2005   0.0000
    14 O5'         36.6550  -123.5620    27.0070 O.3          1 KAA2005   0.0000
    15 C5'         37.5640  -122.8650    27.8730 C.3          1 KAA2005   0.0000
    16 C4'         38.6350  -123.7490    28.5240 C.3          1 KAA2005   0.0000
    17 O4'         38.0730  -124.8110    29.3170 O.3          1 KAA2005   0.0000
    18 C3'         39.5020  -124.4770    27.4950 C.3          1 KAA2005   0.0000
    19 O3'         40.5050  -123.5880    26.9910 O.3          1 KAA2005   0.0000
    20 C2'         40.1390  -125.5450    28.3840 C.3          1 KAA2005   0.0000
    21 O2'         41.2830  -125.0220    29.0610 O.3          1 KAA2005   0.0000
    22 C1'         39.0330  -125.8730    29.3910 C.3          1 KAA2005   0.0000
    23 N9          38.2620  -127.0890    29.0460 N.pl3        1 KAA2005   0.0000
    24 C8          37.4080  -127.2330    28.0330 C.2          1 KAA2005   0.0000
    25 N7          36.8380  -128.4330    28.1040 N.2          1 KAA2005   0.0000
    26 C5          37.3390  -129.0630    29.1640 C.ar         1 KAA2005   0.0000
    27 C4          38.2580  -128.2100    29.7620 C.ar         1 KAA2005   0.0000
    28 N3          38.9110  -128.5880    30.8720 N.ar         1 KAA2005   0.0000
    29 C2          38.6880  -129.7730    31.4100 C.ar         1 KAA2005   0.0000
    30 N1          37.8110  -130.6100    30.8760 N.ar         1 KAA2005   0.0000
    31 C6          37.1160  -130.2960    29.7720 C.ar         1 KAA2005   0.0000
    32 N6          36.1440  -131.1020    29.3470 N.pl3        1 KAA2005   0.0000
    33 HZ1         33.8301  -114.4208    24.4461 H            1 KAA2005   0.0000
    34 HZ2         33.5330  -115.9404    23.9270 H            1 KAA2005   0.0000
    35 HE1         35.8232  -115.1406    25.4212 H            1 KAA2005   0.0000
    36 HE2         35.8175  -115.4707    23.8219 H            1 KAA2005   0.0000
    37 HD1         36.6114  -117.3541    25.0363 H            1 KAA2005   0.0000
    38 HD2         35.2098  -117.7244    24.2846 H            1 KAA2005   0.0000
    39 HG1         34.0317  -117.3665    26.3336 H            1 KAA2005   0.0000
    40 HG2         35.4468  -117.0378    27.0794 H            1 KAA2005   0.0000
    41 HB1         35.0192  -119.2352    27.5979 H            1 KAA2005   0.0000
    42 HB2         36.1590  -119.3023    26.4305 H            1 KAA2005   0.0000
    43 HA          34.3747  -119.7096    24.8086 H            1 KAA2005   0.0000
    44 H12         32.2797  -120.2686    25.7069 H            1 KAA2005   0.0000
    45 H13         32.8398  -119.9649    27.2104 H            1 KAA2005   0.0000
    46 H14         36.1639  -121.1143    24.7156 H            1 KAA2005   0.0000
    47 H5'1        37.0314  -122.4337    28.6012 H            1 KAA2005   0.0000
    48 H5'2        38.0267  -122.1597    27.3360 H            1 KAA2005   0.0000
    49 H4'         39.2204  -123.1818    29.1033 H            1 KAA2005   0.0000
    50 H3'         38.9544  -124.8786    26.7609 H            1 KAA2005   0.0000
    51 H19         40.7315  -123.8401    26.0502 H            1 KAA2005   0.0000
    52 H2'         40.3825  -126.3536    27.8484 H            1 KAA2005   0.0000
    53 H21         42.0983  -125.1703    28.5013 H            1 KAA2005   0.0000
    54 H1'         39.4083  -125.9445    30.3152 H            1 KAA2005   0.0000
    55 H23         37.2244  -126.5464    27.3295 H            1 KAA2005   0.0000
    56 H24         39.1885  -130.0426    32.2327 H            1 KAA2005   0.0000
    57 H25         35.9954  -131.9845    29.7931 H            1 KAA2005   0.0000
    58 H26         35.5630  -130.8244    28.5819 H            1 KAA2005   0.0000
    59 HZ3         33.5387  -115.6103    25.5263 H            1 KAA2005   0.0000
    60 H28         32.6747  -118.7440    26.1386 H            1 KAA2005   0.0000
@<TRIPOS>BOND
     1    1    2       1
     2    2    3       1
     3    3    4       1
     4    4    5       1
     5    5    6       1
     6    6    7       1
     7    6    8       1
     8    8    9       2
     9    8   10      am
    10   10   11       1
    11   11   12       2
    12   11   13       2
    13   11   14       1
    14   14   15       1
    15   15   16       1
    16   16   17       1
    17   16   18       1
    18   17   22       1
    19   18   19       1
    20   18   20       1
    21   20   21       1
    22   20   22       1
    23   22   23       1
    24   23   24       1
    25   23   27       1
    26   24   25       2
    27   25   26       1
    28   26   27      ar
    29   26   31      ar
    30   27   28      ar
    31   28   29      ar
    32   29   30      ar
    33   30   31      ar
    34   31   32       1
    35    1   33       1
    36    1   34       1
    37    2   35       1
    38    2   36       1
    39    3   37       1
    40    3   38       1
    41    4   39       1
    42    4   40       1
    43    5   41       1
    44    5   42       1
    45    6   43       1
    46    7   44       1
    47    7   45       1
    48   10   46       1
    49   15   47       1
    50   15   48       1
    51   16   49       1
    52   18   50       1
    53   19   51       1
    54   20   52       1
    55   21   53       1
    56   22   54       1
    57   24   55       1
    58   29   56       1
    59   32   57       1
    60   32   58       1
    61    1   59       1
    62    7   60       1
@<TRIPOS>SUBSTRUCTURE
     1 KAA2005     1 GROUP             4 D     KAA     0 **** KAA D2005
