@<TRIPOS>MOLECULE
2aov_4DI_3_ligand
   29    28     1     0     0
SMALL
NO_CHARGES


@<TRIPOS>ATOM
     1 C1          42.6420    -7.5560    37.0390 C.2          1 4DI300   0.0000
     2 S           44.3910    -7.6660    37.5130 S.3          1 4DI300   0.0000
     3 C2          45.3860    -6.6440    36.3910 C.3          1 4DI300   0.0000
     4 C3          46.5860    -6.0270    37.1010 C.3          1 4DI300   0.0000
     5 C4          47.3250    -5.7970    35.7780 C.3          1 4DI300   0.0000
     6 C5          47.6910    -4.3560    35.4910 C.3          1 4DI300   0.0000
     7 N1          48.5840    -4.1550    34.3920 N.4          1 4DI300   1.0000
     8 C6          48.3450    -3.4690    33.1630 C.3          1 4DI300   0.0000
     9 C7          49.9260    -3.7880    34.7990 C.3          1 4DI300   0.0000
    10 N2          42.2130    -6.4080    36.7120 N.pl3        1 4DI300   0.0000
    11 N3          41.8800    -8.7460    37.4470 N.2          1 4DI300   0.0000
    12 H1          44.8124    -5.9099    36.0275 H            1 4DI300   0.0000
    13 H2          45.7137    -7.2148    35.6382 H            1 4DI300   0.0000
    14 H3          47.0554    -6.6595    37.7171 H            1 4DI300   0.0000
    15 H4          46.3704    -5.1825    37.5912 H            1 4DI300   0.0000
    16 H5          46.7397    -6.1221    35.0352 H            1 4DI300   0.0000
    17 H6          48.1687    -6.3334    35.7967 H            1 4DI300   0.0000
    18 H7          48.1214    -3.9782    36.3108 H            1 4DI300   0.0000
    19 H8          46.8467    -3.8563    35.2974 H            1 4DI300   0.0000
    20 H9          49.1691    -3.5014    32.5974 H            1 4DI300   0.0000
    21 H10         47.5897    -3.9089    32.6771 H            1 4DI300   0.0000
    22 H11         48.1088    -2.5162    33.3536 H            1 4DI300   0.0000
    23 H12         50.4977    -3.6627    33.9882 H            1 4DI300   0.0000
    24 H13         49.8948    -2.9350    35.3199 H            1 4DI300   0.0000
    25 H14         50.3113    -4.5132    35.3697 H            1 4DI300   0.0000
    26 H15         41.2574    -6.2895    36.4421 H            1 4DI300   0.0000
    27 H16         42.8303    -5.6214    36.7241 H            1 4DI300   0.0000
    28 H17         42.3390    -9.4930    37.9279 H            1 4DI300   0.0000
    29 H18         48.7219    -5.0927    34.0732 H            1 4DI300   0.0000
@<TRIPOS>BOND
     1    1    2       1
     2    1   10       1
     3    1   11       2
     4    2    3       1
     5    3    4       1
     6    4    5       1
     7    5    6       1
     8    6    7       1
     9    7    8       1
    10    7    9       1
    11    3   12       1
    12    3   13       1
    13    4   14       1
    14    4   15       1
    15    5   16       1
    16    5   17       1
    17    6   18       1
    18    6   19       1
    19    8   20       1
    20    8   21       1
    21    8   22       1
    22    9   23       1
    23    9   24       1
    24    9   25       1
    25   10   26       1
    26   10   27       1
    27   11   28       1
    28    7   29       1
@<TRIPOS>SUBSTRUCTURE
     1 4DI300      1 GROUP             4 B     4DI     0 **** 4DI B 300
