@<TRIPOS>MOLECULE
4g6g_FAD_2_ligand
   84    89     1     0     0
SMALL
NO_CHARGES


@<TRIPOS>ATOM
     1 PA          29.9260    35.9610   -35.8530 P.3          1 FAD607   0.0000
     2 O1A         29.9820    37.2190   -35.0410 O.co2        1 FAD607   0.0000
     3 O2A         28.9050    34.9590   -35.3440 O.co2        1 FAD607  -1.0000
     4 O5B         31.3670    35.2750   -35.9000 O.3          1 FAD607   0.0000
     5 C5B         32.4560    36.0660   -36.2650 C.3          1 FAD607   0.0000
     6 C4B         33.6880    35.2560   -35.9250 C.3          1 FAD607   0.0000
     7 O4B         34.8180    35.8710   -36.5110 O.3          1 FAD607   0.0000
     8 C3B         33.9250    35.2570   -34.4280 C.3          1 FAD607   0.0000
     9 O3B         34.4260    33.9910   -34.0980 O.3          1 FAD607   0.0000
    10 C2B         35.0250    36.2800   -34.2650 C.3          1 FAD607   0.0000
    11 O2B         35.7950    36.0360   -33.1240 O.3          1 FAD607   0.0000
    12 C1B         35.8100    36.0010   -35.5330 C.3          1 FAD607   0.0000
    13 N9A         36.7100    37.0830   -35.9240 N.pl3        1 FAD607   0.0000
    14 C8A         36.6100    38.4260   -35.6590 C.2          1 FAD607   0.0000
    15 N7A         37.6710    39.0490   -36.2340 N.2          1 FAD607   0.0000
    16 C5A         38.4320    38.1150   -36.8600 C.ar         1 FAD607   0.0000
    17 C6A         39.6140    38.1830   -37.5910 C.ar         1 FAD607   0.0000
    18 N6A         40.1650    39.3540   -37.8970 N.pl3        1 FAD607   0.0000
    19 N1A         40.1520    37.0310   -38.1130 N.ar         1 FAD607   0.0000
    20 C2A         39.5320    35.8120   -37.9200 C.ar         1 FAD607   0.0000
    21 N3A         38.3670    35.7470   -37.1920 N.ar         1 FAD607   0.0000
    22 C4A         37.8320    36.8790   -36.6710 C.ar         1 FAD607   0.0000
    23 N1          20.6470    36.6770   -35.0100 N.2          1 FAD607   0.0000
    24 C2          19.4840    35.9360   -35.1340 C.2          1 FAD607   0.0000
    25 O2          19.1400    35.4820   -36.2240 O.2          1 FAD607   0.0000
    26 N3          18.6920    35.7050   -34.0280 N.pl3        1 FAD607   0.0000
    27 C4          19.0470    36.2130   -32.7970 C.2          1 FAD607   0.0000
    28 O4          18.3310    36.0040   -31.8300 O.2          1 FAD607   0.0000
    29 C4X         20.2140    36.9470   -32.6630 C.2          1 FAD607   0.0000
    30 N5          20.5790    37.4530   -31.4350 N.2          1 FAD607   0.0000
    31 C5X         21.7510    38.1720   -31.3090 C.ar         1 FAD607   0.0000
    32 C6          22.1220    38.6650   -30.0610 C.ar         1 FAD607   0.0000
    33 C7          23.3010    39.3890   -29.9300 C.ar         1 FAD607   0.0000
    34 C7M         23.7030    39.9260   -28.5850 C.3          1 FAD607   0.0000
    35 C8          24.1010    39.6240   -31.0400 C.ar         1 FAD607   0.0000
    36 C8M         25.3690    40.4090   -30.8810 C.3          1 FAD607   0.0000
    37 C9          23.7410    39.1230   -32.2930 C.ar         1 FAD607   0.0000
    38 C9A         22.5530    38.4030   -32.4250 C.ar         1 FAD607   0.0000
    39 N10         22.1750    37.8960   -33.6530 N.pl3        1 FAD607   0.0000
    40 C10         21.0110    37.1750   -33.7770 C.2          1 FAD607   0.0000
    41 C1'         22.9970    38.1320   -34.8820 C.3          1 FAD607   0.0000
    42 C2'         23.9930    37.0330   -35.1190 C.3          1 FAD607   0.0000
    43 O2'         24.7320    36.8940   -33.9370 O.3          1 FAD607   0.0000
    44 C3'         24.9340    37.4920   -36.2180 C.3          1 FAD607   0.0000
    45 O3'         24.2320    37.8410   -37.3880 O.3          1 FAD607   0.0000
    46 C4'         25.8950    36.3650   -36.5200 C.3          1 FAD607   0.0000
    47 O4'         26.9570    36.4740   -35.6160 O.3          1 FAD607   0.0000
    48 C5'         26.4880    36.4610   -37.9120 C.3          1 FAD607   0.0000
    49 O5'         27.3440    35.3480   -38.0080 O.3          1 FAD607   0.0000
    50 P           28.8680    35.5430   -38.4730 P.3          1 FAD607   0.0000
    51 O1P         29.4630    34.1730   -38.6050 O.co2        1 FAD607   0.0000
    52 O2P         28.8400    36.3170   -39.7670 O.co2        1 FAD607  -1.0000
    53 O3P         29.6710    36.4010   -37.3780 O.3          1 FAD607   0.0000
    54 H5B1        32.4508    36.9239   -35.7511 H            1 FAD607   0.0000
    55 H5B2        32.4293    36.2642   -37.2448 H            1 FAD607   0.0000
    56 H4B         33.5903    34.3189   -36.2601 H            1 FAD607   0.0000
    57 H3B         33.1028    35.4915   -33.9094 H            1 FAD607   0.0000
    58 H5          35.3326    34.0880   -33.6874 H            1 FAD607   0.0000
    59 H2B         34.6579    37.2102   -34.2628 H            1 FAD607   0.0000
    60 H7          36.5103    36.7309   -33.0497 H            1 FAD607   0.0000
    61 H1B         36.3189    35.1450   -35.4422 H            1 FAD607   0.0000
    62 H8A         35.8829    38.8685   -35.1342 H            1 FAD607   0.0000
    63 H6A1        41.0148    39.3844   -38.4231 H            1 FAD607   0.0000
    64 H6A2        39.7295    40.2041   -37.6010 H            1 FAD607   0.0000
    65 H2A         39.9286    34.9800   -38.3080 H            1 FAD607   0.0000
    66 H13         17.8551    35.1655   -34.1202 H            1 FAD607   0.0000
    67 H14         21.5430    38.4990   -29.2628 H            1 FAD607   0.0000
    68 H7M1        24.5696    40.4181   -28.6680 H            1 FAD607   0.0000
    69 H7M2        22.9964    40.5494   -28.2502 H            1 FAD607   0.0000
    70 H7M3        23.8105    39.1678   -27.9419 H            1 FAD607   0.0000
    71 H8M1        25.8252    40.4885   -31.7673 H            1 FAD607   0.0000
    72 H8M2        25.1546    41.3218   -30.5334 H            1 FAD607   0.0000
    73 H8M3        25.9727    39.9401   -30.2363 H            1 FAD607   0.0000
    74 H21         24.3284    39.2786   -33.0872 H            1 FAD607   0.0000
    75 H1'1        23.4896    38.9961   -34.7788 H            1 FAD607   0.0000
    76 H1'2        22.3862    38.1888   -35.6718 H            1 FAD607   0.0000
    77 H2'         23.5376    36.1774   -35.3650 H            1 FAD607   0.0000
    78 H25         25.6550    36.5778   -34.1562 H            1 FAD607   0.0000
    79 H3'         25.4505    38.2858   -35.8968 H            1 FAD607   0.0000
    80 H27         24.7345    38.5531   -37.8783 H            1 FAD607   0.0000
    81 H4'         25.4362    35.4841   -36.4038 H            1 FAD607   0.0000
    82 H29         27.6161    35.7415   -35.7862 H            1 FAD607   0.0000
    83 H5'1        27.0017    37.3122   -38.0194 H            1 FAD607   0.0000
    84 H5'2        25.7696    36.4153   -38.6061 H            1 FAD607   0.0000
@<TRIPOS>BOND
     1    1    2      ar
     2    1    3      ar
     3    1    4       1
     4    1   53       1
     5    4    5       1
     6    5    6       1
     7    6    7       1
     8    6    8       1
     9    7   12       1
    10    8    9       1
    11    8   10       1
    12   10   11       1
    13   10   12       1
    14   12   13       1
    15   13   14       1
    16   13   22       1
    17   14   15       2
    18   15   16       1
    19   16   17      ar
    20   16   22      ar
    21   17   18       1
    22   17   19      ar
    23   19   20      ar
    24   20   21      ar
    25   21   22      ar
    26   23   24       1
    27   23   40       2
    28   24   25       2
    29   24   26       1
    30   26   27       1
    31   27   28       2
    32   27   29       1
    33   29   30       2
    34   29   40       1
    35   30   31       1
    36   31   32      ar
    37   31   38      ar
    38   32   33      ar
    39   33   34       1
    40   33   35      ar
    41   35   36       1
    42   35   37      ar
    43   37   38      ar
    44   38   39       1
    45   39   40       1
    46   39   41       1
    47   41   42       1
    48   42   43       1
    49   42   44       1
    50   44   45       1
    51   44   46       1
    52   46   47       1
    53   46   48       1
    54   48   49       1
    55   49   50       1
    56   50   51      ar
    57   50   52      ar
    58   50   53       1
    59   48   84       1
    60    5   54       1
    61    5   55       1
    62    6   56       1
    63    8   57       1
    64    9   58       1
    65   10   59       1
    66   11   60       1
    67   12   61       1
    68   14   62       1
    69   18   63       1
    70   18   64       1
    71   20   65       1
    72   26   66       1
    73   32   67       1
    74   34   68       1
    75   34   69       1
    76   34   70       1
    77   36   71       1
    78   36   72       1
    79   36   73       1
    80   37   74       1
    81   41   75       1
    82   41   76       1
    83   42   77       1
    84   43   78       1
    85   44   79       1
    86   45   80       1
    87   46   81       1
    88   47   82       1
    89   48   83       1
@<TRIPOS>SUBSTRUCTURE
     1 FAD607      1 GROUP             4 B     FAD     0 **** FAD B 607
