@<TRIPOS>MOLECULE
3bhh_5CP_2_ligand
   47    50     1     0     0
SMALL
NO_CHARGES


@<TRIPOS>ATOM
     1 C4          34.3900    26.1460   -17.1400 C.ar         1 5CP600   0.0000
     2 C5          34.6030    25.4470   -18.3230 C.ar         1 5CP600   0.0000
     3 C6          35.0260    26.1430   -19.4610 C.ar         1 5CP600   0.0000
     4 N1          35.1680    27.4730   -19.3930 N.ar         1 5CP600   0.0000
     5 N3          34.5890    27.4570   -17.1350 N.ar         1 5CP600   0.0000
     6 C1U         33.0460    29.6920   -12.5530 C.3          1 5CP600   0.0000
     7 C1W         34.3220    29.0760   -11.9930 C.3          1 5CP600   0.0000
     8 C1T         33.0520    28.2550   -12.0700 C.3          1 5CP600   0.0000
     9 C1R         33.1410    27.1820   -13.1210 C.2          1 5CP600   0.0000
    10 C1S         33.7800    27.2400   -14.3100 C.2          1 5CP600   0.0000
    11 N1Q         32.5730    26.0070   -12.9380 N.pl3        1 5CP600   0.0000
    12 N1P         32.8260    25.3680   -13.9720 N.2          1 5CP600   0.0000
    13 C1H         33.5390    26.0560   -14.8630 C.2          1 5CP600   0.0000
    14 N1G         33.9780    25.5070   -16.0410 N.pl3        1 5CP600   0.0000
    15 N1X         35.2510    25.4940   -20.6120 N.pl3        1 5CP600   0.0000
    16 C1Y         35.3500    24.0030   -20.6430 C.3          1 5CP600   0.0000
    17 C2          34.9720    28.1410   -18.2290 C.ar         1 5CP600   0.0000
    18 N1I         35.1410    29.4790   -18.1640 N.pl3        1 5CP600   0.0000
    19 C1J         35.2470    30.2170   -17.0440 C.ar         1 5CP600   0.0000
    20 C1O         36.2250    30.0460   -16.0300 C.ar         1 5CP600   0.0000
    21 C1N         36.2670    30.9170   -14.9190 C.ar         1 5CP600   0.0000
    22 C1K         34.3860    31.2960   -16.9030 C.ar         1 5CP600   0.0000
    23 C1L         34.4540    32.1600   -15.8060 C.ar         1 5CP600   0.0000
    24 C1M         35.3550    31.9880   -14.7720 C.ar         1 5CP600   0.0000
    25 C1V         35.3690    33.0640   -13.5990 C.3          1 5CP600   0.0000
    26 C1Z         34.7600    32.7940   -12.3100 C.1          1 5CP600   0.0000
    27 N1A         34.2770    32.7370   -11.2700 N.1          1 5CP600   0.0000
    28 H1          34.4557    24.4586   -18.3602 H            1 5CP600   0.0000
    29 H1U1        32.9734    29.8914   -13.5302 H            1 5CP600   0.0000
    30 H1U2        32.5583    30.3930   -12.0327 H            1 5CP600   0.0000
    31 H1W1        34.6728    29.3727   -11.1048 H            1 5CP600   0.0000
    32 H1W2        35.0879    28.8711   -12.6024 H            1 5CP600   0.0000
    33 H1T         32.5754    28.0418   -11.2171 H            1 5CP600   0.0000
    34 H1S         34.3115    27.9986   -14.6868 H            1 5CP600   0.0000
    35 H1G         33.9913    24.5079   -16.0823 H            1 5CP600   0.0000
    36 H1X         35.3539    26.0136   -21.4602 H            1 5CP600   0.0000
    37 H1Y1        35.5191    23.6996   -21.5807 H            1 5CP600   0.0000
    38 H1Y2        36.1033    23.7067   -20.0558 H            1 5CP600   0.0000
    39 H1Y3        34.4939    23.6052   -20.3132 H            1 5CP600   0.0000
    40 H1I         35.1924    29.9697   -19.0338 H            1 5CP600   0.0000
    41 H1O         36.8899    29.3026   -16.1027 H            1 5CP600   0.0000
    42 H1N         36.9624    30.7721   -14.2152 H            1 5CP600   0.0000
    43 H1K         33.6958    31.4606   -17.6076 H            1 5CP600   0.0000
    44 H1L         33.8239    32.9356   -15.7678 H            1 5CP600   0.0000
    45 H1V1        34.9152    33.8790   -13.9594 H            1 5CP600   0.0000
    46 H1V2        36.3306    33.2705   -13.4181 H            1 5CP600   0.0000
    47 H1Q         32.0528    25.6981   -12.1417 H            1 5CP600   0.0000
@<TRIPOS>BOND
     1    1    2      ar
     2    1    5      ar
     3    1   14       1
     4    2    3      ar
     5    3    4      ar
     6    3   15       1
     7    4   17      ar
     8    5   17      ar
     9    6    7       1
    10    6    8       1
    11    7    8       1
    12    8    9       1
    13    9   10       2
    14    9   11       1
    15   10   13       1
    16   11   12       1
    17   12   13       2
    18   13   14       1
    19   15   16       1
    20   17   18       1
    21   18   19       1
    22   19   20      ar
    23   19   22      ar
    24   20   21      ar
    25   21   24      ar
    26   22   23      ar
    27   23   24      ar
    28   24   25       1
    29   25   26       1
    30   26   27       3
    31    2   28       1
    32    6   29       1
    33    6   30       1
    34    7   31       1
    35    7   32       1
    36    8   33       1
    37   10   34       1
    38   25   46       1
    39   14   35       1
    40   15   36       1
    41   16   37       1
    42   16   38       1
    43   16   39       1
    44   18   40       1
    45   20   41       1
    46   21   42       1
    47   22   43       1
    48   23   44       1
    49   25   45       1
    50   11   47       1
@<TRIPOS>SUBSTRUCTURE
     1 5CP600      1 GROUP             4 B     5CP     0 **** 5CP B 600
