@<TRIPOS>MOLECULE
3nx4_NAP_2_ligand
   73    77     1     0     0
SMALL
NO_CHARGES


@<TRIPOS>ATOM
     1 PA           4.7540    13.7110    25.3330 P.3          1 NAP330   0.0000
     2 O1A          4.1920    14.2150    26.6060 O.co2        1 NAP330   0.0000
     3 O2A          4.5770    12.2630    25.1460 O.co2        1 NAP330  -1.0000
     4 O5B          4.0500    14.3870    24.0680 O.3          1 NAP330   0.0000
     5 C5B          4.3940    15.6440    23.5850 C.3          1 NAP330   0.0000
     6 C4B          3.2210    16.1270    22.7420 C.3          1 NAP330   0.0000
     7 O4B          3.5260    16.1400    21.3610 O.3          1 NAP330   0.0000
     8 C3B          1.9790    15.2490    22.8520 C.3          1 NAP330   0.0000
     9 O3B          1.2620    15.5540    24.0220 O.3          1 NAP330   0.0000
    10 C2B          1.2080    15.6840    21.6350 C.3          1 NAP330   0.0000
    11 O2B          0.5500    16.8620    22.0070 O.3          1 NAP330   0.0000
    12 C1B          2.3090    16.0440    20.6430 C.3          1 NAP330   0.0000
    13 N9A          2.4300    15.0200    19.5930 N.pl3        1 NAP330   0.0000
    14 C8A          2.5750    13.6670    19.7680 C.2          1 NAP330   0.0000
    15 N7A          2.6640    13.0880    18.5440 N.2          1 NAP330   0.0000
    16 C5A          2.5900    14.0520    17.5950 C.ar         1 NAP330   0.0000
    17 C6A          2.6350    14.0140    16.2020 C.ar         1 NAP330   0.0000
    18 N6A          2.7710    12.8580    15.5620 N.pl3        1 NAP330   0.0000
    19 N1A          2.5360    15.1880    15.4860 N.ar         1 NAP330   0.0000
    20 C2A          2.3940    16.3920    16.1520 C.ar         1 NAP330   0.0000
    21 N3A          2.3500    16.4250    17.5340 N.ar         1 NAP330   0.0000
    22 C4A          2.4440    15.2730    18.2420 C.ar         1 NAP330   0.0000
    23 O3           6.3100    14.0570    25.2210 O.3          1 NAP330   0.0000
    24 PN           7.2970    14.8690    26.1960 P.3          1 NAP330   0.0000
    25 O1N          7.9180    13.9900    27.2260 O.co2        1 NAP330   0.0000
    26 O2N          6.6360    16.1410    26.4610 O.co2        1 NAP330  -1.0000
    27 O5D          8.4700    15.0890    25.0820 O.3          1 NAP330   0.0000
    28 C5D          8.1720    15.8760    23.9470 C.3          1 NAP330   0.0000
    29 C4D          9.2810    15.7120    22.9120 C.3          1 NAP330   0.0000
    30 O4D         10.4850    16.2720    23.4090 O.3          1 NAP330   0.0000
    31 C3D          9.5690    14.2370    22.6680 C.3          1 NAP330   0.0000
    32 O3D          9.9930    14.0660    21.3350 O.3          1 NAP330   0.0000
    33 C2D         10.7370    13.9430    23.5800 C.3          1 NAP330   0.0000
    34 O2D         11.4940    12.8460    23.1200 O.3          1 NAP330   0.0000
    35 C1D         11.4850    15.2600    23.4720 C.3          1 NAP330   0.0000
    36 N1N         12.3690    15.5220    24.6130 N.ar         1 NAP330   1.0000
    37 C2N         13.6880    15.7690    24.3660 C.ar         1 NAP330   0.0000
    38 C3N         14.5570    16.0430    25.4140 C.ar         1 NAP330   0.0000
    39 C7N         15.8970    16.6220    25.0830 C.2          1 NAP330   0.0000
    40 O7N         16.9897    16.2562    25.8928 O.2          1 NAP330   0.0000
    41 N7N         16.0138    17.4547    24.0533 N.am         1 NAP330   0.0000
    42 C4N         14.0760    16.0670    26.7210 C.ar         1 NAP330   0.0000
    43 C5N         12.7240    15.8160    26.9580 C.ar         1 NAP330   0.0000
    44 C6N         11.8700    15.5530    25.8910 C.ar         1 NAP330   0.0000
    45 P2B         -0.8890    17.2350    21.4150 P.3          1 NAP330   0.0000
    46 O1X         -1.4150    18.4180    22.1770 O.co2        1 NAP330   0.0000
    47 O2X         -0.7850    17.6190    19.9590 O.co2        1 NAP330  -1.0000
    48 O3X         -1.7670    16.0170    21.5640 O.co2        1 NAP330  -1.0000
    49 H5B1         5.2194    15.5832    23.0238 H            1 NAP330   0.0000
    50 H5B2         4.5537    16.2733    24.3456 H            1 NAP330   0.0000
    51 H4B          2.9830    17.0557    23.0263 H            1 NAP330   0.0000
    52 H3B          2.2128    14.2777    22.8090 H            1 NAP330   0.0000
    53 H5           1.2035    14.7393    24.5990 H            1 NAP330   0.0000
    54 H2B          0.5866    14.9795    21.2922 H            1 NAP330   0.0000
    55 H1B          2.1011    16.9273    20.2227 H            1 NAP330   0.0000
    56 H8A          2.6092    13.1898    20.6461 H            1 NAP330   0.0000
    57 H6A1         2.8023    12.8404    14.5626 H            1 NAP330   0.0000
    58 H6A2         2.8421    12.0053    16.0795 H            1 NAP330   0.0000
    59 H2A          2.3228    17.2429    15.6316 H            1 NAP330   0.0000
    60 H5D1         8.1054    16.8370    24.2154 H            1 NAP330   0.0000
    61 H5D2         7.3019    15.5787    23.5538 H            1 NAP330   0.0000
    62 H4D          9.0215    16.1584    22.0556 H            1 NAP330   0.0000
    63 H3D          8.7778    13.6641    22.8820 H            1 NAP330   0.0000
    64 H16          9.3640    13.4493    20.8617 H            1 NAP330   0.0000
    65 H2D         10.4243    13.7892    24.5173 H            1 NAP330   0.0000
    66 H18         12.2139    13.1714    22.5070 H            1 NAP330   0.0000
    67 H1D         12.0208    15.2694    22.6277 H            1 NAP330   0.0000
    68 H2N         14.0303    15.7527    23.4265 H            1 NAP330   0.0000
    69 H7N1        16.9041    17.8512    23.8294 H            1 NAP330   0.0000
    70 H7N2        15.2113    17.6845    23.5026 H            1 NAP330   0.0000
    71 H4N         14.6940    16.2623    27.4825 H            1 NAP330   0.0000
    72 H5N         12.3693    15.8251    27.8929 H            1 NAP330   0.0000
    73 H6N         10.8975    15.3874    26.0548 H            1 NAP330   0.0000
@<TRIPOS>BOND
     1    1    2      ar
     2    1    3      ar
     3    1    4       1
     4    1   23       1
     5    4    5       1
     6    5    6       1
     7    6    7       1
     8    6    8       1
     9    7   12       1
    10    8    9       1
    11    8   10       1
    12   10   11       1
    13   10   12       1
    14   11   45       1
    15   12   13       1
    16   13   14       1
    17   13   22       1
    18   14   15       2
    19   15   16       1
    20   16   17      ar
    21   16   22      ar
    22   17   18       1
    23   17   19      ar
    24   19   20      ar
    25   20   21      ar
    26   21   22      ar
    27   23   24       1
    28   24   25      ar
    29   24   26      ar
    30   24   27       1
    31   27   28       1
    32   28   29       1
    33   29   30       1
    34   29   31       1
    35   30   35       1
    36   31   32       1
    37   31   33       1
    38   33   34       1
    39   33   35       1
    40   35   36       1
    41   36   37      ar
    42   36   44      ar
    43   37   38      ar
    44   38   39       1
    45   38   42      ar
    46   39   40       2
    47   39   41      am
    48   42   43      ar
    49   43   44      ar
    50   45   46      ar
    51   45   47      ar
    52   45   48      ar
    53   43   72       1
    54    5   49       1
    55    5   50       1
    56    6   51       1
    57    8   52       1
    58    9   53       1
    59   10   54       1
    60   12   55       1
    61   14   56       1
    62   18   57       1
    63   18   58       1
    64   20   59       1
    65   44   73       1
    66   28   60       1
    67   28   61       1
    68   29   62       1
    69   31   63       1
    70   32   64       1
    71   33   65       1
    72   34   66       1
    73   35   67       1
    74   37   68       1
    75   41   69       1
    76   41   70       1
    77   42   71       1
@<TRIPOS>SUBSTRUCTURE
     1 NAP330      1 GROUP             4 B     NAP     0 **** NAP B 330
