@<TRIPOS>MOLECULE
3v4e_COA_1_ligand
   80    82     1     0     0
SMALL
NO_CHARGES


@<TRIPOS>ATOM
     1 N1A          7.4440     2.6210    13.5710 N.ar         1 COA202   0.0000
     2 C2A          7.9710     3.6940    14.1840 C.ar         1 COA202   0.0000
     3 N3A          8.1470     3.7200    15.5070 N.ar         1 COA202   0.0000
     4 C4A          7.8250     2.6440    16.2560 C.ar         1 COA202   0.0000
     5 C5A          7.2540     1.4510    15.6360 C.ar         1 COA202   0.0000
     6 C6A          7.0480     1.5090    14.2260 C.ar         1 COA202   0.0000
     7 N6A          6.5410     0.4120    13.6090 N.pl3        1 COA202   0.0000
     8 N7A          7.0210     0.5530    16.6050 N.2          1 COA202   0.0000
     9 C8A          7.4140     1.1180    17.7730 C.2          1 COA202   0.0000
    10 N9A          7.8760     2.3740    17.5380 N.pl3        1 COA202   0.0000
    11 C1B          8.4340     3.3350    18.4920 C.3          1 COA202   0.0000
    12 C2B          7.4840     3.6570    19.6290 C.3          1 COA202   0.0000
    13 O2B          6.7250     4.8500    19.3640 O.3          1 COA202   0.0000
    14 C3B          8.4370     3.7970    20.8050 C.3          1 COA202   0.0000
    15 O3B          8.6460     5.1600    21.1080 O.3          1 COA202   0.0000
    16 P3B          9.1040     5.6070    22.5980 P.3          1 COA202   0.0000
    17 O7A          7.8160     5.5180    23.3870 O.co2        1 COA202   0.0000
    18 O8A         10.1840     4.6230    23.0200 O.co2        1 COA202  -1.0000
    19 O9A          9.5960     7.0200    22.3560 O.co2        1 COA202  -1.0000
    20 C4B          9.7670     3.1630    20.3930 C.3          1 COA202   0.0000
    21 O4B          9.6100     2.7400    19.0300 O.3          1 COA202   0.0000
    22 C5B         10.1890     1.9760    21.2560 C.3          1 COA202   0.0000
    23 O5B         10.0040     0.7660    20.5200 O.3          1 COA202   0.0000
    24 P1A          9.3260    -0.5480    21.1710 P.3          1 COA202   0.0000
    25 O1A          8.1640    -0.1700    22.0660 O.co2        1 COA202   0.0000
    26 O2A         10.4910    -1.3600    21.6940 O.co2        1 COA202  -1.0000
    27 O3A          8.6620    -1.3370    19.9330 O.3          1 COA202   0.0000
    28 P2A          7.6830    -2.6140    20.1480 P.3          1 COA202   0.0000
    29 O4A          8.3810    -3.5230    21.1320 O.co2        1 COA202   0.0000
    30 O5A          6.2570    -2.1480    20.3520 O.co2        1 COA202  -1.0000
    31 O6A          7.7540    -3.4080    18.7400 O.3          1 COA202   0.0000
    32 CBP          6.9110    -3.5040    16.5400 C.3          1 COA202   0.0000
    33 CCP          6.6260    -3.8580    17.9980 C.3          1 COA202   0.0000
    34 CDP          8.0760    -2.5370    16.5100 C.3          1 COA202   0.0000
    35 CEP          7.3040    -4.7920    15.8050 C.3          1 COA202   0.0000
    36 CAP          5.6610    -2.8460    15.8970 C.3          1 COA202   0.0000
    37 OAP          5.7760    -2.4210    14.4950 O.3          1 COA202   0.0000
    38 C9P          4.6180    -3.8770    15.7260 C.2          1 COA202   0.0000
    39 O9P          3.6700    -4.0470    16.4810 O.2          1 COA202   0.0000
    40 N8P          4.8360    -4.5490    14.6400 N.am         1 COA202   0.0000
    41 C7P          3.9330    -5.5060    14.0980 C.3          1 COA202   0.0000
    42 C6P          2.6480    -4.8180    13.6750 C.3          1 COA202   0.0000
    43 C5P          2.2420    -5.4590    12.3760 C.2          1 COA202   0.0000
    44 O5P          2.6280    -4.9400    11.3510 O.2          1 COA202   0.0000
    45 N4P          1.4430    -6.5120    12.3810 N.am         1 COA202   0.0000
    46 C3P          0.9850    -7.0330    11.1020 C.3          1 COA202   0.0000
    47 C2P          1.9610    -8.1250    10.6150 C.3          1 COA202   0.0000
    48 S1P          1.7620    -9.4910    11.7810 S.3          1 COA202   0.0000
    49 H2A          8.2367     4.4889    13.6385 H            1 COA202   0.0000
    50 H6A1         6.2647    -0.3827    14.1494 H            1 COA202   0.0000
    51 H6A2         6.4437     0.3982    12.6138 H            1 COA202   0.0000
    52 H8A          7.3705     0.6779    18.6699 H            1 COA202   0.0000
    53 H1B          8.6769     4.1780    18.0121 H            1 COA202   0.0000
    54 H2B          6.8647     2.8871    19.7830 H            1 COA202   0.0000
    55 H7           5.8788     4.6081    18.8893 H            1 COA202   0.0000
    56 H3B          8.0658     3.3229    21.6034 H            1 COA202   0.0000
    57 H4B         10.4823     3.8607    20.4332 H            1 COA202   0.0000
    58 H5B1         9.6307     1.9510    22.0852 H            1 COA202   0.0000
    59 H5B2        11.1527     2.0708    21.5057 H            1 COA202   0.0000
    60 HCP1         5.7969    -3.3955    18.3119 H            1 COA202   0.0000
    61 HCP2         6.5152    -4.8466    18.1000 H            1 COA202   0.0000
    62 HDP1         8.2806    -2.2909    15.5626 H            1 COA202   0.0000
    63 HDP2         7.8387    -1.7131    17.0246 H            1 COA202   0.0000
    64 HDP3         8.8781    -2.9685    16.9230 H            1 COA202   0.0000
    65 HEP1         7.4956    -4.5833    14.8460 H            1 COA202   0.0000
    66 HEP2         8.1202    -5.1828    16.2306 H            1 COA202   0.0000
    67 HEP3         6.5524    -5.4494    15.8594 H            1 COA202   0.0000
    68 HAP          5.3252    -2.0957    16.4665 H            1 COA202   0.0000
    69 H21          4.8804    -2.4804    14.0541 H            1 COA202   0.0000
    70 H8P          5.6931    -4.3848    14.1517 H            1 COA202   0.0000
    71 H7P1         3.7270    -6.1975    14.7904 H            1 COA202   0.0000
    72 H7P2         4.3519    -5.9448    13.3030 H            1 COA202   0.0000
    73 H6P1         2.8047    -3.8389    13.5452 H            1 COA202   0.0000
    74 H6P2         1.9379    -4.9532    14.3660 H            1 COA202   0.0000
    75 H4P          1.1610    -6.9388    13.2402 H            1 COA202   0.0000
    76 H3P1         0.9525    -6.2915    10.4319 H            1 COA202   0.0000
    77 H3P2         0.0716    -7.4255    11.2093 H            1 COA202   0.0000
    78 H2P1         2.9018    -7.7862    10.6288 H            1 COA202   0.0000
    79 H2P2         1.7257    -8.4178     9.6882 H            1 COA202   0.0000
    80 H1P          2.6362    -9.6762    12.2299 H            1 COA202   0.0000
@<TRIPOS>BOND
     1    1    2      ar
     2    1    6      ar
     3    2    3      ar
     4    3    4      ar
     5    4    5      ar
     6    4   10       1
     7    5    6      ar
     8    5    8       1
     9    6    7       1
    10    8    9       2
    11    9   10       1
    12   10   11       1
    13   11   12       1
    14   11   21       1
    15   12   13       1
    16   12   14       1
    17   14   15       1
    18   14   20       1
    19   15   16       1
    20   16   17      ar
    21   16   18      ar
    22   16   19      ar
    23   20   21       1
    24   20   22       1
    25   22   23       1
    26   23   24       1
    27   24   25      ar
    28   24   26      ar
    29   24   27       1
    30   27   28       1
    31   28   29      ar
    32   28   30      ar
    33   28   31       1
    34   31   33       1
    35   32   33       1
    36   32   34       1
    37   32   35       1
    38   32   36       1
    39   36   37       1
    40   36   38       1
    41   38   39       2
    42   38   40      am
    43   40   41       1
    44   41   42       1
    45   42   43       1
    46   43   44       2
    47   43   45      am
    48   45   46       1
    49   46   47       1
    50   47   48       1
    51    2   49       1
    52    7   50       1
    53    7   51       1
    54    9   52       1
    55   11   53       1
    56   12   54       1
    57   13   55       1
    58   14   56       1
    59   48   80       1
    60   47   79       1
    61   20   57       1
    62   22   58       1
    63   22   59       1
    64   47   78       1
    65   46   77       1
    66   33   60       1
    67   33   61       1
    68   34   62       1
    69   34   63       1
    70   34   64       1
    71   35   65       1
    72   35   66       1
    73   35   67       1
    74   36   68       1
    75   37   69       1
    76   40   70       1
    77   41   71       1
    78   41   72       1
    79   42   73       1
    80   42   74       1
    81   45   75       1
    82   46   76       1
@<TRIPOS>SUBSTRUCTURE
     1 COA202      1 GROUP             4 A     COA     0 **** COA A 202
