@<TRIPOS>MOLECULE
3i4d_UQ1_1_ligand
   36    36     1     0     0
SMALL
NO_CHARGES


@<TRIPOS>ATOM
     1 C1         -11.4870   -53.2360    37.0760 C.2          1 UQ1503   0.0000
     2 O1         -12.1120   -54.2600    37.3760 O.2          1 UQ1503   0.0000
     3 C2         -10.1180   -53.3100    36.7210 C.2          1 UQ1503   0.0000
     4 O2          -9.4450   -54.5060    36.6720 O.3          1 UQ1503   0.0000
     5 CM2        -10.0550   -55.6640    37.3280 C.3          1 UQ1503   0.0000
     6 C3          -9.4000   -52.1470    36.3790 C.2          1 UQ1503   0.0000
     7 O3          -8.0670   -52.2250    36.0200 O.3          1 UQ1503   0.0000
     8 CM3         -7.2320   -51.1530    35.5230 C.3          1 UQ1503   0.0000
     9 C4         -10.0700   -50.9310    36.4010 C.2          1 UQ1503   0.0000
    10 O4          -9.4330   -49.9170    36.1150 O.2          1 UQ1503   0.0000
    11 C5         -11.4320   -50.8740    36.7570 C.2          1 UQ1503   0.0000
    12 CM5        -12.1730   -49.5490    36.7730 C.3          1 UQ1503   0.0000
    13 C6         -12.1630   -52.0070    37.1010 C.2          1 UQ1503   0.0000
    14 C7         -13.6580   -51.8620    37.4730 C.3          1 UQ1503   0.0000
    15 C8         -13.8700   -51.2180    38.7060 C.2          1 UQ1503   0.0000
    16 C9         -14.9870   -50.4650    39.1330 C.2          1 UQ1503   0.0000
    17 C10        -16.1930   -50.2290    38.2250 C.3          1 UQ1503   0.0000
    18 C11        -15.0340   -49.8570    40.5430 C.3          1 UQ1503   0.0000
    19 HM21        -9.4624   -56.4615    37.2151 H            1 UQ1503   0.0000
    20 HM22       -10.1728   -55.4715    38.3022 H            1 UQ1503   0.0000
    21 HM23       -10.9464   -55.8499    36.9148 H            1 UQ1503   0.0000
    22 HM31        -6.3115   -51.5018    35.3467 H            1 UQ1503   0.0000
    23 HM32        -7.6206   -50.7939    34.6745 H            1 UQ1503   0.0000
    24 HM33        -7.1868   -50.4224    36.2043 H            1 UQ1503   0.0000
    25 HM51       -13.1224   -49.7013    37.0475 H            1 UQ1503   0.0000
    26 HM52       -11.7334   -48.9291    37.4230 H            1 UQ1503   0.0000
    27 HM53       -12.1512   -49.1438    35.8590 H            1 UQ1503   0.0000
    28 H10        -14.0626   -52.7753    37.5193 H            1 UQ1503   0.0000
    29 H11        -14.1123   -51.3321    36.7569 H            1 UQ1503   0.0000
    30 H12        -13.1286   -51.3051    39.3713 H            1 UQ1503   0.0000
    31 H13        -16.8717   -49.6768    38.7091 H            1 UQ1503   0.0000
    32 H14        -15.8993   -49.7477    37.3991 H            1 UQ1503   0.0000
    33 H15        -16.5972   -51.1081    37.9725 H            1 UQ1503   0.0000
    34 H16        -15.8948   -49.3627    40.6643 H            1 UQ1503   0.0000
    35 H17        -14.9702   -50.5873    41.2232 H            1 UQ1503   0.0000
    36 H18        -14.2676   -49.2253    40.6593 H            1 UQ1503   0.0000
@<TRIPOS>BOND
     1    1    2       2
     2    1    3       1
     3    1   13       1
     4    3    4       1
     5    3    6       2
     6    4    5       1
     7    6    7       1
     8    6    9       1
     9    7    8       1
    10    9   10       2
    11    9   11       1
    12   11   12       1
    13   11   13       2
    14   13   14       1
    15   14   15       1
    16   15   16       2
    17   16   17       1
    18   16   18       1
    19    5   19       1
    20    5   20       1
    21    5   21       1
    22    8   22       1
    23    8   23       1
    24    8   24       1
    25   12   25       1
    26   12   26       1
    27   12   27       1
    28   14   28       1
    29   14   29       1
    30   15   30       1
    31   17   31       1
    32   17   32       1
    33   17   33       1
    34   18   34       1
    35   18   35       1
    36   18   36       1
@<TRIPOS>SUBSTRUCTURE
     1 UQ1503      1 GROUP             4 L     UQ1     0 **** UQ1 L 503
