@<TRIPOS>MOLECULE
3nx2_FER_1_ligand
   23    23     1     0     0
SMALL
NO_CHARGES


@<TRIPOS>ATOM
     1 C4           9.6410    10.1380    14.6030 C.ar         1 FER169   0.0000
     2 C5           8.9120    11.2730    14.2800 C.ar         1 FER169   0.0000
     3 C6           8.1540    11.2940    13.1240 C.ar         1 FER169   0.0000
     4 C3           9.6320     9.0500    13.7780 C.ar         1 FER169   0.0000
     5 C2           8.8910     9.0610    12.5640 C.ar         1 FER169   0.0000
     6 C1           8.1200    10.2110    12.2610 C.ar         1 FER169   0.0000
     7 C10         10.4370     7.3990    15.5440 C.3          1 FER169   0.0000
     8 C7           7.3140    10.4720    11.0520 C.2          1 FER169   0.0000
     9 C8           7.8610    11.5940    10.5950 C.2          1 FER169   0.0000
    10 C9           7.7510    12.5750     9.5060 C.2          1 FER169   0.0000
    11 O1           7.0710    12.5050     8.5510 O.co2        1 FER169   0.0000
    12 O2           8.4480    13.5540     9.6050 O.co2        1 FER169  -1.0000
    13 O4          10.3810    10.0700    15.7580 O.3          1 FER169   0.0000
    14 O3          10.4100     7.9990    14.2260 O.3          1 FER169   0.0000
    15 H1           8.9346    12.0723    14.8805 H            1 FER169   0.0000
    16 H2           7.6181    12.1096    12.9059 H            1 FER169   0.0000
    17 H3           8.9134     8.2788    11.9414 H            1 FER169   0.0000
    18 H4          11.1059     6.6558    15.5583 H            1 FER169   0.0000
    19 H5          10.6924     8.0904    16.2198 H            1 FER169   0.0000
    20 H6           9.5313     7.0365    15.7639 H            1 FER169   0.0000
    21 H7           6.5541     9.9424    10.6749 H            1 FER169   0.0000
    22 H8           8.6066    11.8648    11.2038 H            1 FER169   0.0000
    23 H9          10.4014    10.8485    16.3853 H            1 FER169   0.0000
@<TRIPOS>BOND
     1    1    2      ar
     2    1    4      ar
     3    1   13       1
     4    2    3      ar
     5    3    6      ar
     6    4    5      ar
     7    4   14       1
     8    5    6      ar
     9    6    8       1
    10    7   14       1
    11    8    9       2
    12    9   10       1
    13   10   11      ar
    14   10   12      ar
    15    2   15       1
    16    3   16       1
    17    5   17       1
    18    7   18       1
    19    7   19       1
    20    7   20       1
    21    8   21       1
    22    9   22       1
    23   13   23       1
@<TRIPOS>SUBSTRUCTURE
     1 FER169      1 GROUP             4 A     FER     0 **** FER A 169
