@<TRIPOS>MOLECULE
1j0b_5PA_9_ligand
   34    35     1     0     0
SMALL
NO_CHARGES


@<TRIPOS>ATOM
     1 C4          46.5380   106.0350    98.1720 C.2          1 5PA1091   0.0000
     2 C4A         46.9090   105.2620    97.0710 C.2          1 5PA1091   0.0000
     3 P           47.5170   101.9700    99.6550 P.3          1 5PA1091   0.0000
     4 O1P         47.3010   100.8490    98.5240 O.co2        1 5PA1091   0.0000
     5 O2P         48.9390   102.0070   100.0670 O.co2        1 5PA1091  -1.0000
     6 O3P         46.4940   101.7130   100.6920 O.co2        1 5PA1091  -1.0000
     7 O4P         47.1870   103.3490    98.8920 O.3          1 5PA1091   0.0000
     8 C5A         46.3820   104.1110    99.6790 C.2          1 5PA1091   0.0000
     9 C5          46.0620   105.4190    99.3290 C.2          1 5PA1091   0.0000
    10 N1          45.3350   107.5000   100.1790 N.2          1 5PA1091   0.0000
    11 C6          45.4470   106.1900   100.3100 C.2          1 5PA1091   0.0000
    12 C2          45.8120   108.1410    99.1010 C.2          1 5PA1091   0.0000
    13 C2A         45.6520   109.6600    99.0120 C.3          1 5PA1091   0.0000
    14 C3          46.4270   107.4220    98.0740 C.2          1 5PA1091   0.0000
    15 O3          46.9420   108.0720    96.9960 O.3          1 5PA1091   0.0000
    16 N           47.3920   105.7720    95.9500 N.pl3        1 5PA1091   0.0000
    17 C8          47.7320   105.0420    94.8890 C.3          1 5PA1091   0.0000
    18 C7          47.6760   105.7760    93.5470 C.2          1 5PA1091   0.0000
    19 O7          47.7080   107.0260    93.5330 O.co2        1 5PA1091   0.0000
    20 O8          47.6220   105.0560    92.5280 O.co2        1 5PA1091  -1.0000
    21 C9          48.9470   104.1250    95.0470 C.3          1 5PA1091   0.0000
    22 C10         47.5620   103.5180    94.8800 C.3          1 5PA1091   0.0000
    23 H4A         46.8041   104.2694    97.1327 H            1 5PA1091   0.0000
    24 H5A         46.0133   103.7246   100.5244 H            1 5PA1091   0.0000
    25 H3          45.0834   105.7451   101.1285 H            1 5PA1091   0.0000
    26 H2A1        46.0546   109.9881    98.1574 H            1 5PA1091   0.0000
    27 H2A2        44.6802   109.8947    99.0343 H            1 5PA1091   0.0000
    28 H2A3        46.1166   110.0900    99.7861 H            1 5PA1091   0.0000
    29 H7          46.8620   109.0664    96.9265 H            1 5PA1091   0.0000
    30 H8          47.5087   106.7637    95.8960 H            1 5PA1091   0.0000
    31 H9          49.4155   104.0646    95.9284 H            1 5PA1091   0.0000
    32 H10         49.6166   104.0517    94.3079 H            1 5PA1091   0.0000
    33 H11         47.3219   103.0470    94.0312 H            1 5PA1091   0.0000
    34 H12         47.1209   103.0599    95.6517 H            1 5PA1091   0.0000
@<TRIPOS>BOND
     1    1    2       2
     2    1    9       1
     3    1   14       1
     4    2   16       1
     5    3    4      ar
     6    3    5      ar
     7    3    6      ar
     8    3    7       1
     9    7    8       1
    10    8    9       2
    11    9   11       1
    12   10   11       2
    13   10   12       1
    14   12   13       1
    15   12   14       2
    16   14   15       1
    17   16   17       1
    18   17   18       1
    19   17   21       1
    20   17   22       1
    21   18   19      ar
    22   18   20      ar
    23   21   22       1
    24    2   23       1
    25   22   34       1
    26   22   33       1
    27    8   24       1
    28   11   25       1
    29   13   26       1
    30   13   27       1
    31   13   28       1
    32   15   29       1
    33   16   30       1
    34   21   32       1
    35   21   31       1
@<TRIPOS>SUBSTRUCTURE
     1 5PA1091     1 GROUP             4 I     5PA     0 **** 5PA I1091
