@<TRIPOS>MOLECULE
2oci_TYC_1_ligand
   26    26     1     0     0
SMALL
NO_CHARGES


@<TRIPOS>ATOM
     1 N          -25.2190   173.1690   -25.1190 N.4          1 TYC401   1.0000
     2 CA         -25.9400   171.8520   -25.1980 C.3          1 TYC401   0.0000
     3 C          -25.6160   171.0180   -23.9750 C.2          1 TYC401   0.0000
     4 O          -25.1480   171.5470   -22.9860 O.2          1 TYC401   0.0000
     5 CB         -25.5240   171.1630   -26.5230 C.3          1 TYC401   0.0000
     6 CG         -26.0200   171.9430   -27.7180 C.ar         1 TYC401   0.0000
     7 CD1        -25.1830   172.9050   -28.3290 C.ar         1 TYC401   0.0000
     8 CD2        -27.3210   171.7180   -28.2190 C.ar         1 TYC401   0.0000
     9 CE1        -25.6470   173.6440   -29.4390 C.ar         1 TYC401   0.0000
    10 CE2        -27.7880   172.4550   -29.3300 C.ar         1 TYC401   0.0000
    11 OH         -27.4000   174.1330   -31.0070 O.3          1 TYC401   0.0000
    12 CZ         -26.9520   173.4210   -29.9410 C.ar         1 TYC401   0.0000
    13 NXT        -25.6540   169.5020   -24.0600 N.am         1 TYC401   0.0000
    14 H1         -24.3222   173.0846   -25.5534 H            1 TYC401   0.0000
    15 H2         -25.7533   173.8703   -25.5909 H            1 TYC401   0.0000
    16 HA         -26.9248   172.0242   -25.2193 H            1 TYC401   0.0000
    17 HB1        -25.9133   170.2423   -26.5490 H            1 TYC401   0.0000
    18 HB2        -24.5265   171.1044   -26.5619 H            1 TYC401   0.0000
    19 HD1        -24.2612   173.0621   -27.9745 H            1 TYC401   0.0000
    20 HD2        -27.9120   171.0366   -27.7871 H            1 TYC401   0.0000
    21 HE1        -25.0544   174.3243   -29.8703 H            1 TYC401   0.0000
    22 HE2        -28.7090   172.2946   -29.6850 H            1 TYC401   0.0000
    23 HH         -26.8083   174.8147   -31.4373 H            1 TYC401   0.0000
    24 HXT1       -25.4404   168.9505   -23.2536 H            1 TYC401   0.0000
    25 HXT2       -25.8926   169.0554   -24.9223 H            1 TYC401   0.0000
    26 H13        -25.1020   173.4280   -24.1602 H            1 TYC401   0.0000
@<TRIPOS>BOND
     1    1    2       1
     2    2    3       1
     3    2    5       1
     4    3    4       2
     5    3   13      am
     6    5    6       1
     7    6    7      ar
     8    6    8      ar
     9    7    9      ar
    10    8   10      ar
    11    9   12      ar
    12   10   12      ar
    13   11   12       1
    14    1   14       1
    15    1   15       1
    16    2   16       1
    17    5   17       1
    18    5   18       1
    19    7   19       1
    20    8   20       1
    21    9   21       1
    22   10   22       1
    23   11   23       1
    24   13   24       1
    25   13   25       1
    26    1   26       1
@<TRIPOS>SUBSTRUCTURE
     1 TYC401      1 GROUP             4 A     TYC     0 **** TYC A 401
