@<TRIPOS>MOLECULE
1edo_NAP_1_ligand
   73    77     1     0     0
SMALL
NO_CHARGES


@<TRIPOS>ATOM
     1 PA         -40.6640    32.4010    18.6890 P.3          1 NAP301   0.0000
     2 O1A        -41.9590    32.7770    18.0250 O.co2        1 NAP301   0.0000
     3 O2A        -39.6410    31.7670    17.8180 O.co2        1 NAP301  -1.0000
     4 O5B        -40.9090    31.5130    19.9760 O.3          1 NAP301   0.0000
     5 C5B        -41.9280    31.8780    21.0310 C.3          1 NAP301   0.0000
     6 C4B        -42.0670    30.7820    21.9830 C.3          1 NAP301   0.0000
     7 O4B        -43.1490    31.0320    22.9490 O.3          1 NAP301   0.0000
     8 C3B        -42.4300    29.3640    21.4160 C.3          1 NAP301   0.0000
     9 O3B        -41.4320    28.3800    21.9400 O.3          1 NAP301   0.0000
    10 C2B        -43.8130    29.0190    21.9060 C.3          1 NAP301   0.0000
    11 O2B        -44.0320    27.7060    22.0910 O.3          1 NAP301   0.0000
    12 C1B        -43.7750    29.8480    23.2150 C.3          1 NAP301   0.0000
    13 N9A        -45.0720    30.2450    23.6020 N.pl3        1 NAP301   0.0000
    14 C8A        -46.0000    30.9940    22.9200 C.2          1 NAP301   0.0000
    15 N7A        -47.1130    31.2030    23.5880 N.2          1 NAP301   0.0000
    16 C5A        -46.9640    30.5830    24.7930 C.ar         1 NAP301   0.0000
    17 C6A        -47.8750    30.4840    25.9030 C.ar         1 NAP301   0.0000
    18 N6A        -49.0740    31.0320    25.9500 N.pl3        1 NAP301   0.0000
    19 N1A        -47.3600    29.7950    26.9460 N.ar         1 NAP301   0.0000
    20 C2A        -46.1900    29.2060    26.9900 C.ar         1 NAP301   0.0000
    21 N3A        -45.2860    29.2580    25.9400 N.ar         1 NAP301   0.0000
    22 C4A        -45.7090    29.9790    24.8360 C.ar         1 NAP301   0.0000
    23 O3         -40.0860    33.7180    19.3440 O.3          1 NAP301   0.0000
    24 PN         -38.6070    34.2640    19.7660 P.3          1 NAP301   0.0000
    25 O1N        -38.1680    35.0950    18.7140 O.co2        1 NAP301   0.0000
    26 O2N        -37.8420    33.1630    20.3160 O.co2        1 NAP301  -1.0000
    27 O5D        -38.3010    35.0990    21.0570 O.3          1 NAP301   0.0000
    28 C5D        -38.7210    34.5950    22.3730 C.3          1 NAP301   0.0000
    29 C4D        -38.8700    35.6590    23.3450 C.3          1 NAP301   0.0000
    30 O4D        -37.8910    36.6920    22.8250 O.3          1 NAP301   0.0000
    31 C3D        -40.2210    36.5480    23.3140 C.3          1 NAP301   0.0000
    32 O3D        -40.4350    37.0130    24.6190 O.3          1 NAP301   0.0000
    33 C2D        -39.9660    37.6670    22.3190 C.3          1 NAP301   0.0000
    34 O2D        -40.7060    38.7270    22.6280 O.3          1 NAP301   0.0000
    35 C1D        -38.5230    37.9250    22.7110 C.3          1 NAP301   0.0000
    36 N1N        -37.7370    38.7780    21.7140 N.ar         1 NAP301   1.0000
    37 C2N        -37.5130    38.3200    20.4230 C.ar         1 NAP301   0.0000
    38 C3N        -36.8620    39.2270    19.6160 C.ar         1 NAP301   0.0000
    39 C7N        -36.6420    38.6570    18.1830 C.2          1 NAP301   0.0000
    40 O7N        -36.1070    39.4030    17.4140 O.2          1 NAP301   0.0000
    41 N7N        -37.0650    37.4000    17.8940 N.am         1 NAP301   0.0000
    42 C4N        -36.4280    40.4910    19.9410 C.ar         1 NAP301   0.0000
    43 C5N        -36.7010    40.8270    21.3150 C.ar         1 NAP301   0.0000
    44 C6N        -37.3600    39.9900    22.1840 C.ar         1 NAP301   0.0000
    45 P2B        -44.9020    26.6970    21.3340 P.3          1 NAP301   0.0000
    46 O1X        -44.6560    26.8440    19.8750 O.co2        1 NAP301   0.0000
    47 O2X        -44.5600    25.3210    21.8390 O.co2        1 NAP301  -1.0000
    48 O3X        -46.2960    27.0060    21.5840 O.co2        1 NAP301  -1.0000
    49 H5B1       -42.8105    32.0523    20.5941 H            1 NAP301   0.0000
    50 H5B2       -41.6266    32.7005    21.5133 H            1 NAP301   0.0000
    51 H4B        -41.2096    30.7024    22.4915 H            1 NAP301   0.0000
    52 H3B        -42.4108    29.3764    20.4163 H            1 NAP301   0.0000
    53 H5         -41.8631    27.4819    22.0264 H            1 NAP301   0.0000
    54 H2B        -44.4994    29.3951    21.2836 H            1 NAP301   0.0000
    55 H1B        -43.3132    29.3490    23.9484 H            1 NAP301   0.0000
    56 H8A        -45.8431    31.3484    21.9982 H            1 NAP301   0.0000
    57 H6A1       -49.6459    30.9147    26.7619 H            1 NAP301   0.0000
    58 H6A2       -49.4110    31.5648    25.1737 H            1 NAP301   0.0000
    59 H2A        -45.9391    28.6985    27.8143 H            1 NAP301   0.0000
    60 H5D1       -38.0332    33.9496    22.7051 H            1 NAP301   0.0000
    61 H5D2       -39.5981    34.1252    22.2729 H            1 NAP301   0.0000
    62 H4D        -38.6407    35.3569    24.2703 H            1 NAP301   0.0000
    63 H3D        -40.9949    35.9898    23.0150 H            1 NAP301   0.0000
    64 H16        -40.5384    36.2341    25.2376 H            1 NAP301   0.0000
    65 H2D        -40.0697    37.3785    21.3671 H            1 NAP301   0.0000
    66 H18        -41.6739    38.4771    22.6013 H            1 NAP301   0.0000
    67 H1D        -38.5082    38.3774    23.6027 H            1 NAP301   0.0000
    68 H2N        -37.7980    37.4148    20.1077 H            1 NAP301   0.0000
    69 H7N1       -36.9285    37.0249    16.9771 H            1 NAP301   0.0000
    70 H7N2       -37.5132    36.8490    18.5980 H            1 NAP301   0.0000
    71 H4N        -35.9745    41.1068    19.2967 H            1 NAP301   0.0000
    72 H5N        -36.3949    41.7163    21.6547 H            1 NAP301   0.0000
    73 H6N        -37.5531    40.2656    23.1257 H            1 NAP301   0.0000
@<TRIPOS>BOND
     1    1    2      ar
     2    1    3      ar
     3    1    4       1
     4    1   23       1
     5    4    5       1
     6    5    6       1
     7    6    7       1
     8    6    8       1
     9    7   12       1
    10    8    9       1
    11    8   10       1
    12   10   11       1
    13   10   12       1
    14   11   45       1
    15   12   13       1
    16   13   14       1
    17   13   22       1
    18   14   15       2
    19   15   16       1
    20   16   17      ar
    21   16   22      ar
    22   17   18       1
    23   17   19      ar
    24   19   20      ar
    25   20   21      ar
    26   21   22      ar
    27   23   24       1
    28   24   25      ar
    29   24   26      ar
    30   24   27       1
    31   27   28       1
    32   28   29       1
    33   29   30       1
    34   29   31       1
    35   30   35       1
    36   31   32       1
    37   31   33       1
    38   33   34       1
    39   33   35       1
    40   35   36       1
    41   36   37      ar
    42   36   44      ar
    43   37   38      ar
    44   38   39       1
    45   38   42      ar
    46   39   40       2
    47   39   41      am
    48   42   43      ar
    49   43   44      ar
    50   45   46      ar
    51   45   47      ar
    52   45   48      ar
    53   43   72       1
    54    5   49       1
    55    5   50       1
    56    6   51       1
    57    8   52       1
    58    9   53       1
    59   10   54       1
    60   12   55       1
    61   14   56       1
    62   18   57       1
    63   18   58       1
    64   20   59       1
    65   44   73       1
    66   28   60       1
    67   28   61       1
    68   29   62       1
    69   31   63       1
    70   32   64       1
    71   33   65       1
    72   34   66       1
    73   35   67       1
    74   37   68       1
    75   41   69       1
    76   41   70       1
    77   42   71       1
@<TRIPOS>SUBSTRUCTURE
     1 NAP301      1 GROUP             4 A     NAP     0 **** NAP A 301
