@<TRIPOS>MOLECULE
3w0i_O11_1_ligand
   69    70     1     0     0
SMALL
NO_CHARGES


@<TRIPOS>ATOM
     1 C14         12.9230    26.0670    26.0690 C.ar         1 O11501   0.0000
     2 C13         14.2260    26.1060    26.4460 C.ar         1 O11501   0.0000
     3 C1          14.0020    29.6950    17.3240 C.3          1 O11501   0.0000
     4 C6          15.2790    28.5770    23.8460 C.ar         1 O11501   0.0000
     5 C5          15.0400    28.8810    22.5320 C.ar         1 O11501   0.0000
     6 C4          14.4330    27.9560    21.7170 C.ar         1 O11501   0.0000
     7 C3          14.8630    29.1820    19.6490 C.3          1 O11501   0.0000
     8 C2          14.8870    28.7940    18.1710 C.3          1 O11501   0.0000
     9 C7          14.9050    27.3670    24.3760 C.ar         1 O11501   0.0000
    10 O01         14.3950    29.7250    15.9570 O.3          1 O11501   0.0000
    11 O02         14.4330    27.4480    18.0050 O.3          1 O11501   0.0000
    12 O03         14.1650    28.2190    20.4170 O.3          1 O11501   0.0000
    13 C9          14.0580    26.7550    22.2460 C.ar         1 O11501   0.0000
    14 C8          14.3010    26.4580    23.5500 C.ar         1 O11501   0.0000
    15 C10         15.1910    27.0450    25.8140 C.3          1 O11501   0.0000
    16 C11         15.1590    28.3040    26.6300 C.3          1 O11501   0.0000
    17 C25         13.7820    28.8410    26.7990 C.3          1 O11501   0.0000
    18 C12         16.6090    26.5370    25.8790 C.3          1 O11501   0.0000
    19 C26         16.9170    25.3360    25.0220 C.3          1 O11501   0.0000
    20 C15         12.0270    25.2240    26.6540 C.ar         1 O11501   0.0000
    21 C18         14.6240    25.2730    27.4520 C.ar         1 O11501   0.0000
    22 C17         13.7330    24.4170    28.0530 C.ar         1 O11501   0.0000
    23 C16         12.4270    24.3950    27.6520 C.ar         1 O11501   0.0000
    24 O04         11.5680    23.5530    28.2420 O.3          1 O11501   0.0000
    25 C19         10.2590    23.3700    27.8380 C.3          1 O11501   0.0000
    26 C20          9.7580    22.0470    28.3340 C.3          1 O11501   0.0000
    27 O05         10.6790    21.0610    27.9970 O.3          1 O11501   0.0000
    28 C21          8.4850    21.6300    27.6620 C.3          1 O11501   0.0000
    29 C22          8.7850    20.7990    26.4470 C.3          1 O11501   0.0000
    30 C23          7.7720    22.8970    27.3010 C.3          1 O11501   0.0000
    31 C24          7.6550    20.7690    28.5780 C.3          1 O11501   0.0000
    32 H1          12.6110    26.6757    25.3395 H            1 O11501   0.0000
    33 H2          14.0482    30.6243    17.6904 H            1 O11501   0.0000
    34 H3          13.0608    29.3615    17.3788 H            1 O11501   0.0000
    35 H4          15.7344    29.2489    24.4301 H            1 O11501   0.0000
    36 H5          15.3063    29.7731    22.1670 H            1 O11501   0.0000
    37 H6          14.4104    30.0683    19.7468 H            1 O11501   0.0000
    38 H7          15.8027    29.2488    19.9845 H            1 O11501   0.0000
    39 H8          15.8270    28.8599    17.8364 H            1 O11501   0.0000
    40 H9          14.1622    30.6140    15.5627 H            1 O11501   0.0000
    41 H10         15.0009    26.8346    18.5538 H            1 O11501   0.0000
    42 H11         13.5975    26.0834    21.6655 H            1 O11501   0.0000
    43 H12         14.0351    25.5639    23.9105 H            1 O11501   0.0000
    44 H13         15.7188    28.9957    26.1738 H            1 O11501   0.0000
    45 H14         15.5402    28.1097    27.5338 H            1 O11501   0.0000
    46 H15         13.8150    29.6764    27.3476 H            1 O11501   0.0000
    47 H16         13.3920    29.0468    25.9015 H            1 O11501   0.0000
    48 H17         13.2134    28.1608    27.2615 H            1 O11501   0.0000
    49 H18         16.8042    26.2938    26.8291 H            1 O11501   0.0000
    50 H19         17.2143    27.2803    25.5940 H            1 O11501   0.0000
    51 H20         17.8772    25.0815    25.1375 H            1 O11501   0.0000
    52 H21         16.3341    24.5716    25.2975 H            1 O11501   0.0000
    53 H22         16.7441    25.5581    24.0624 H            1 O11501   0.0000
    54 H23         11.0749    25.2158    26.3484 H            1 O11501   0.0000
    55 H24         15.5768    25.2861    27.7554 H            1 O11501   0.0000
    56 H25         14.0408    23.8092    28.7850 H            1 O11501   0.0000
    57 H26         10.2135    23.3896    26.8392 H            1 O11501   0.0000
    58 H27          9.6901    24.1024    28.2120 H            1 O11501   0.0000
    59 H28          9.6311    22.0760    29.3255 H            1 O11501   0.0000
    60 H29         11.1501    21.3192    27.1535 H            1 O11501   0.0000
    61 H30          7.9280    20.5278    26.0087 H            1 O11501   0.0000
    62 H31          9.3334    21.3340    25.8043 H            1 O11501   0.0000
    63 H32          9.2933    19.9820    26.7192 H            1 O11501   0.0000
    64 H33          6.9093    22.6760    26.8462 H            1 O11501   0.0000
    65 H34          7.5861    23.4230    28.1309 H            1 O11501   0.0000
    66 H35          8.3446    23.4378    26.6849 H            1 O11501   0.0000
    67 H36          6.8118    20.5022    28.1113 H            1 O11501   0.0000
    68 H37          8.1726    19.9499    28.8253 H            1 O11501   0.0000
    69 H38          7.4296    21.2834    29.4054 H            1 O11501   0.0000
@<TRIPOS>BOND
     1    1    2      ar
     2    1   20      ar
     3    2   15       1
     4    2   21      ar
     5    3    8       1
     6    3   10       1
     7    4    5      ar
     8    4    9      ar
     9    5    6      ar
    10    6   12       1
    11    6   13      ar
    12    7    8       1
    13    7   12       1
    14    8   11       1
    15    9   14      ar
    16    9   15       1
    17   13   14      ar
    18   15   16       1
    19   15   18       1
    20   16   17       1
    21   18   19       1
    22   20   23      ar
    23   21   22      ar
    24   22   23      ar
    25   23   24       1
    26   24   25       1
    27   25   26       1
    28   26   27       1
    29   26   28       1
    30   28   29       1
    31   28   30       1
    32   28   31       1
    33    1   32       1
    34    3   33       1
    35    3   34       1
    36    4   35       1
    37    5   36       1
    38    7   37       1
    39    7   38       1
    40    8   39       1
    41   10   40       1
    42   11   41       1
    43   13   42       1
    44   14   43       1
    45   16   44       1
    46   16   45       1
    47   17   46       1
    48   17   47       1
    49   17   48       1
    50   18   49       1
    51   18   50       1
    52   19   51       1
    53   19   52       1
    54   19   53       1
    55   20   54       1
    56   21   55       1
    57   22   56       1
    58   25   57       1
    59   25   58       1
    60   26   59       1
    61   27   60       1
    62   29   61       1
    63   29   62       1
    64   29   63       1
    65   30   64       1
    66   30   65       1
    67   30   66       1
    68   31   67       1
    69   31   68       1
    70   31   69       1
@<TRIPOS>SUBSTRUCTURE
     1 O11501      1 GROUP             4 A     O11     0 **** O11 A 501
