@<TRIPOS>MOLECULE
4l5a_TBN_4_ligand
   33    35     1     0     0
SMALL
NO_CHARGES


@<TRIPOS>ATOM
     1 O5'         70.3370    27.7950    52.0950 O.3          1 TBN301   0.0000
     2 C5'         69.2120    27.2600    52.7870 C.3          1 TBN301   0.0000
     3 C4'         69.3320    27.4560    54.2790 C.3          1 TBN301   0.0000
     4 O4'         69.6000    28.8420    54.5530 O.3          1 TBN301   0.0000
     5 C1'         68.3790    29.5220    54.7590 C.3          1 TBN301   0.0000
     6 N9          68.1040    30.3360    53.5640 N.pl3        1 TBN301   0.0000
     7 C8          69.0320    31.0960    52.9920 C.2          1 TBN301   0.0000
     8 C7          68.4740    31.7640    51.8620 C.2          1 TBN301   0.0000
     9 C5          67.1110    31.3440    51.7950 C.ar         1 TBN301   0.0000
    10 C6          65.9690    31.6130    50.9230 C.ar         1 TBN301   0.0000
    11 N1          64.7910    31.0350    51.1470 N.ar         1 TBN301   0.0000
    12 C2          64.6440    30.1850    52.1950 C.ar         1 TBN301   0.0000
    13 N3          65.6620    29.9160    53.0140 N.ar         1 TBN301   0.0000
    14 C4          66.9230    30.4510    52.8820 C.ar         1 TBN301   0.0000
    15 N6          66.1130    32.5380    49.7780 N.pl3        1 TBN301   0.0000
    16 C2'         67.3110    28.4570    55.0950 C.3          1 TBN301   0.0000
    17 O2'         66.6560    28.7450    56.3140 O.3          1 TBN301   0.0000
    18 C3'         68.0860    27.1290    55.0810 C.3          1 TBN301   0.0000
    19 O3'         68.4580    26.7730    56.4140 O.3          1 TBN301   0.0000
    20 H5'         70.4950    27.2694    51.2591 H            1 TBN301   0.0000
    21 H5'1        69.1469    26.2813    52.5925 H            1 TBN301   0.0000
    22 H5'2        68.3843    27.7196    52.4649 H            1 TBN301   0.0000
    23 H4'         70.0928    26.9037    54.6198 H            1 TBN301   0.0000
    24 H1'         68.4811    30.1318    55.5449 H            1 TBN301   0.0000
    25 H6          69.9772    31.1859    53.3059 H            1 TBN301   0.0000
    26 H7          68.9412    32.3963    51.2440 H            1 TBN301   0.0000
    27 H8          63.7567    29.7527    52.3560 H            1 TBN301   0.0000
    28 H9          65.3312    32.7214    49.1820 H            1 TBN301   0.0000
    29 H10         66.9921    32.9800    49.5998 H            1 TBN301   0.0000
    30 H2'         66.6317    28.4404    54.3613 H            1 TBN301   0.0000
    31 H12         67.2826    29.2326    56.9220 H            1 TBN301   0.0000
    32 H3'         67.5541    26.4025    54.6459 H            1 TBN301   0.0000
    33 H14         68.9386    27.5386    56.8417 H            1 TBN301   0.0000
@<TRIPOS>BOND
     1    1    2       1
     2    2    3       1
     3    3    4       1
     4    3   18       1
     5    4    5       1
     6    5    6       1
     7    5   16       1
     8    6    7       1
     9    6   14       1
    10    7    8       2
    11    8    9       1
    12    9   10      ar
    13    9   14      ar
    14   10   11      ar
    15   10   15       1
    16   11   12      ar
    17   12   13      ar
    18   13   14      ar
    19   16   17       1
    20   16   18       1
    21   18   19       1
    22    1   20       1
    23    2   21       1
    24    2   22       1
    25    3   23       1
    26    5   24       1
    27    7   25       1
    28    8   26       1
    29   12   27       1
    30   15   28       1
    31   15   29       1
    32   16   30       1
    33   17   31       1
    34   18   32       1
    35   19   33       1
@<TRIPOS>SUBSTRUCTURE
     1 TBN301      1 GROUP             4 D     TBN     0 **** TBN D 301
