@<TRIPOS>MOLECULE
3ndr_NAD_2_ligand
   70    74     1     0     0
SMALL
NO_CHARGES


@<TRIPOS>ATOM
     1 PA          20.3120    15.4160    45.3690 P.3          1 NAD251   0.0000
     2 O1A         21.6130    16.1140    45.3290 O.co2        1 NAD251   0.0000
     3 O2A         19.1500    16.3280    45.3420 O.co2        1 NAD251  -1.0000
     4 O5B         20.2360    14.4860    46.6800 O.3          1 NAD251   0.0000
     5 C5B         21.0330    13.3260    46.8050 C.3          1 NAD251   0.0000
     6 C4B         20.9150    12.8100    48.2280 C.3          1 NAD251   0.0000
     7 O4B         21.8390    11.7570    48.3910 O.3          1 NAD251   0.0000
     8 C3B         21.2600    13.8870    49.2640 C.3          1 NAD251   0.0000
     9 O3B         20.1910    14.1490    50.1700 O.3          1 NAD251   0.0000
    10 C2B         22.5000    13.3430    49.9620 C.3          1 NAD251   0.0000
    11 O2B         22.5280    13.6110    51.3480 O.3          1 NAD251   0.0000
    12 C1B         22.4230    11.8540    49.6670 C.3          1 NAD251   0.0000
    13 N9A         23.7500    11.2250    49.7320 N.pl3        1 NAD251   0.0000
    14 C8A         24.9080    11.6700    49.1510 C.2          1 NAD251   0.0000
    15 N7A         25.9070    10.8140    49.4680 N.2          1 NAD251   0.0000
    16 C5A         25.4030     9.8350    50.2400 C.ar         1 NAD251   0.0000
    17 C6A         26.0000     8.7350    50.8270 C.ar         1 NAD251   0.0000
    18 N6A         27.3130     8.7910    51.0720 N.pl3        1 NAD251   0.0000
    19 N1A         25.2110     7.8860    51.5760 N.ar         1 NAD251   0.0000
    20 C2A         23.8640     8.1430    51.7430 C.ar         1 NAD251   0.0000
    21 N3A         23.2890     9.2490    51.1600 N.ar         1 NAD251   0.0000
    22 C4A         24.0510    10.0790    50.4190 C.ar         1 NAD251   0.0000
    23 O3          20.2850    14.3430    44.1730 O.3          1 NAD251   0.0000
    24 PN          19.1940    14.2620    42.9990 P.3          1 NAD251   0.0000
    25 O1N         19.5400    15.2720    41.9810 O.co2        1 NAD251   0.0000
    26 O2N         17.7950    14.1480    43.4820 O.co2        1 NAD251  -1.0000
    27 O5D         19.6090    12.8120    42.4320 O.3          1 NAD251   0.0000
    28 C5D         19.0150    11.6210    42.9020 C.3          1 NAD251   0.0000
    29 C4D         19.5400    10.4940    42.0320 C.3          1 NAD251   0.0000
    30 O4D         19.2450    10.7770    40.6810 O.3          1 NAD251   0.0000
    31 C3D         21.0540    10.3610    42.1220 C.3          1 NAD251   0.0000
    32 O3D         21.4050     9.0060    42.0280 O.3          1 NAD251   0.0000
    33 C2D         21.5850    10.9710    40.8590 C.3          1 NAD251   0.0000
    34 O2D         22.7410    10.2500    40.5090 O.3          1 NAD251   0.0000
    35 C1D         20.4340    10.7000    39.9060 C.3          1 NAD251   0.0000
    36 N1N         20.3570    11.6660    38.8000 N.ar         1 NAD251   1.0000
    37 C2N         20.2880    13.0060    39.0940 C.ar         1 NAD251   0.0000
    38 C3N         20.1840    13.9480    38.0690 C.ar         1 NAD251   0.0000
    39 C7N         19.2880    15.1060    38.3850 C.2          1 NAD251   0.0000
    40 O7N         19.0410    16.0800    37.3980 O.2          1 NAD251   0.0000
    41 N7N         18.7370    15.1660    39.5950 N.am         1 NAD251   0.0000
    42 C4N         20.1810    13.4950    36.7380 C.ar         1 NAD251   0.0000
    43 C5N         20.2490    12.1250    36.4390 C.ar         1 NAD251   0.0000
    44 C6N         20.3380    11.2130    37.4960 C.ar         1 NAD251   0.0000
    45 H5B1        21.9871    13.5494    46.6054 H            1 NAD251   0.0000
    46 H5B2        20.7135    12.6269    46.1653 H            1 NAD251   0.0000
    47 H4B         19.9874    12.4726    48.3885 H            1 NAD251   0.0000
    48 H3B         21.4987    14.7332    48.7877 H            1 NAD251   0.0000
    49 H5          19.9619    13.3116    50.6664 H            1 NAD251   0.0000
    50 H2B         23.3182    13.7254    49.5326 H            1 NAD251   0.0000
    51 H7          22.0850    12.8624    51.8413 H            1 NAD251   0.0000
    52 H1B         21.8212    11.4184    50.3364 H            1 NAD251   0.0000
    53 H8A         24.9998    12.4905    48.5868 H            1 NAD251   0.0000
    54 H6A1        27.7762     8.0126    51.4957 H            1 NAD251   0.0000
    55 H6A2        27.8320     9.6113    50.8315 H            1 NAD251   0.0000
    56 H2A         23.3035     7.5218    52.2907 H            1 NAD251   0.0000
    57 H5D1        18.0197    11.6796    42.8254 H            1 NAD251   0.0000
    58 H5D2        19.2672    11.4644    43.8569 H            1 NAD251   0.0000
    59 H4D         19.1086     9.6322    42.2987 H            1 NAD251   0.0000
    60 H3D         21.4270    10.7957    42.9417 H            1 NAD251   0.0000
    61 H17         21.4255     8.6027    42.9429 H            1 NAD251   0.0000
    62 H2D         21.7674    11.9489    40.9608 H            1 NAD251   0.0000
    63 H19         23.4136    10.3205    41.2456 H            1 NAD251   0.0000
    64 H1D         20.5252     9.7769    39.5323 H            1 NAD251   0.0000
    65 H2N         20.3124    13.3082    40.0469 H            1 NAD251   0.0000
    66 H7N1        18.1347    15.9280    39.8329 H            1 NAD251   0.0000
    67 H7N2        18.9253    14.4491    40.2662 H            1 NAD251   0.0000
    68 H4N         20.1296    14.1593    35.9923 H            1 NAD251   0.0000
    69 H5N         20.2341    11.8079    35.4907 H            1 NAD251   0.0000
    70 H6N         20.3879    10.2323    37.3069 H            1 NAD251   0.0000
@<TRIPOS>BOND
     1    1    2      ar
     2    1    3      ar
     3    1    4       1
     4    1   23       1
     5    4    5       1
     6    5    6       1
     7    6    7       1
     8    6    8       1
     9    7   12       1
    10    8    9       1
    11    8   10       1
    12   10   11       1
    13   10   12       1
    14   12   13       1
    15   13   14       1
    16   13   22       1
    17   14   15       2
    18   15   16       1
    19   16   17      ar
    20   16   22      ar
    21   17   18       1
    22   17   19      ar
    23   19   20      ar
    24   20   21      ar
    25   21   22      ar
    26   23   24       1
    27   24   25      ar
    28   24   26      ar
    29   24   27       1
    30   27   28       1
    31   28   29       1
    32   29   30       1
    33   29   31       1
    34   30   35       1
    35   31   32       1
    36   31   33       1
    37   33   34       1
    38   33   35       1
    39   35   36       1
    40   36   37      ar
    41   36   44      ar
    42   37   38      ar
    43   38   39       1
    44   38   42      ar
    45   39   40       2
    46   39   41      am
    47   42   43      ar
    48   43   44      ar
    49   44   70       1
    50    5   45       1
    51    5   46       1
    52    6   47       1
    53    8   48       1
    54    9   49       1
    55   10   50       1
    56   11   51       1
    57   12   52       1
    58   14   53       1
    59   18   54       1
    60   18   55       1
    61   20   56       1
    62   43   69       1
    63   28   57       1
    64   28   58       1
    65   29   59       1
    66   31   60       1
    67   32   61       1
    68   33   62       1
    69   34   63       1
    70   35   64       1
    71   37   65       1
    72   41   66       1
    73   41   67       1
    74   42   68       1
@<TRIPOS>SUBSTRUCTURE
     1 NAD251      1 GROUP             4 B     NAD     0 **** NAD B 251
