@<TRIPOS>MOLECULE
4lut_DCS_1_ligand
   37    38     1     0     0
SMALL
NO_CHARGES


@<TRIPOS>ATOM
     1 N1          25.4810    49.8590    93.6560 N.ar         1 DCS401   0.0000
     2 C2          26.7970    49.7260    93.9360 C.ar         1 DCS401   0.0000
     3 C2A         27.7190    50.8870    93.6510 C.3          1 DCS401   0.0000
     4 C3          27.3220    48.4570    94.5220 C.ar         1 DCS401   0.0000
     5 O3          28.6490    48.3520    94.8080 O.3          1 DCS401   0.0000
     6 C4          26.3450    47.3520    94.7850 C.ar         1 DCS401   0.0000
     7 C4A         26.7010    45.9910    95.4050 C.3          1 DCS401   0.0000
     8 C5          24.9270    47.6580    94.4100 C.ar         1 DCS401   0.0000
     9 C6          24.5820    48.8960    93.8700 C.ar         1 DCS401   0.0000
    10 C5A         23.8200    46.6410    94.6110 C.3          1 DCS401   0.0000
    11 O4P         23.7750    46.2410    95.9830 O.3          1 DCS401   0.0000
    12 P           22.6700    45.2050    96.4250 P.3          1 DCS401   0.0000
    13 O1P         21.4510    45.6470    95.6650 O.co2        1 DCS401   0.0000
    14 O2P         23.2200    43.8980    95.9170 O.co2        1 DCS401  -1.0000
    15 O3P         22.5990    45.2930    97.9240 O.co2        1 DCS401  -1.0000
    16 N           27.7930    45.9930    96.3900 N.4          1 DCS401   1.0000
    17 CA          28.0980    44.8060    97.1990 C.3          1 DCS401   0.0000
    18 C           29.3000    44.8920    98.1050 C.2          1 DCS401   0.0000
    19 O           30.3260    45.4970    97.8320 O.2          1 DCS401   0.0000
    20 ND          29.0390    44.2600    99.2550 N.am         1 DCS401   0.0000
    21 OG          27.7560    43.8990    99.3430 O.3          1 DCS401   0.0000
    22 CB          27.0200    44.4140    98.2170 C.3          1 DCS401   0.0000
    23 H2A1        28.6537    50.6413    93.9079 H            1 DCS401   0.0000
    24 H2A2        27.6879    51.1057    92.6757 H            1 DCS401   0.0000
    25 H2A3        27.4261    51.6831    94.1806 H            1 DCS401   0.0000
    26 H4          29.2622    49.1206    94.6254 H            1 DCS401   0.0000
    27 H4A1        26.9619    45.3756    94.6612 H            1 DCS401   0.0000
    28 H4A2        25.8821    45.6382    95.8578 H            1 DCS401   0.0000
    29 H7          23.6257    49.0689    93.6343 H            1 DCS401   0.0000
    30 H5A1        23.9956    45.8410    94.0373 H            1 DCS401   0.0000
    31 H5A2        22.9436    47.0489    94.3549 H            1 DCS401   0.0000
    32 H10         27.5898    46.7296    97.0351 H            1 DCS401   0.0000
    33 HA          28.2329    44.0340    96.5778 H            1 DCS401   0.0000
    34 HB1         26.4157    43.7125    97.8392 H            1 DCS401   0.0000
    35 HB2         26.4790    45.2117    98.4835 H            1 DCS401   0.0000
    36 H14         28.6279    46.2127    95.8853 H            1 DCS401   0.0000
    37 HD          29.7218    44.0797    99.9630 H            1 DCS401   0.0000
@<TRIPOS>BOND
     1    1    2      ar
     2    1    9      ar
     3    2    3       1
     4    2    4      ar
     5    4    5       1
     6    4    6      ar
     7    6    7       1
     8    6    8      ar
     9    7   16       1
    10    8    9      ar
    11    8   10       1
    12   10   11       1
    13   11   12       1
    14   12   13      ar
    15   12   14      ar
    16   12   15      ar
    17   16   17       1
    18   17   18       1
    19   17   22       1
    20   18   19       2
    21   18   20      am
    22   20   21       1
    23   21   22       1
    24    3   23       1
    25    3   24       1
    26    3   25       1
    27    5   26       1
    28    7   27       1
    29    7   28       1
    30    9   29       1
    31   10   30       1
    32   10   31       1
    33   22   35       1
    34   22   34       1
    35   16   32       1
    36   17   33       1
    37   16   36       1
    38   20   37       1
@<TRIPOS>SUBSTRUCTURE
     1 DCS401      1 GROUP             4 A     DCS     0 **** DCS A 401
