@<TRIPOS>MOLECULE
./coach420/1ojz/ligand.pdb
 44 48 0 0 0
SMALL
GASTEIGER

@<TRIPOS>ATOM
      1  PA         2.5000   -1.5620   10.0370 P.3   500  NAD500      0.2189
      2  O1A        2.3130   -0.1250    9.7580 O.3   500  NAD500     -0.4371
      3  O2A        3.7340   -2.2370    9.5510 O.2   500  NAD500     -0.5170
      4  O5B        2.3500   -1.7890   11.6110 O.3   500  NAD500     -0.3112
      5  C5B        3.1850   -1.0500   12.5170 C.3   500  NAD500      0.1813
      6  C4B        2.3450   -0.5920   13.6800 C.3   500  NAD500      0.1801
      7  O4B        3.2990    0.2210   14.4510 O.3   500  NAD500     -0.3306
      8  C3B        1.1630    0.3420   13.2880 C.3   500  NAD500      0.2161
      9  O3B       -0.0450   -0.1880   13.9050 O.3   500  NAD500     -0.2175
     10  C2B        1.4960    1.7340   13.7760 C.3   500  NAD500      0.2337
     11  O2B        0.6490    2.3510   14.6680 O.3   500  NAD500     -0.2155
     12  C1B        2.9790    1.6010   14.2390 C.3   500  NAD500      0.2409
     13  N9A        3.9140    2.1110   13.2210 N.ar  500  NAD500     -0.2693
     14  C8A        3.8950    2.1620   11.8190 C.ar  500  NAD500      0.1816
     15  N7A        4.9570    2.7210   11.2910 N.ar  500  NAD500     -0.2193
     16  C5A        5.7450    3.0910   12.2990 C.ar  500  NAD500      0.1518
     17  C6A        7.0520    3.7510   12.3460 C.ar  500  NAD500      0.1919
     18  N6A        7.6930    4.1270   11.2590 N.pl3 500  NAD500     -0.1054
     19  N1A        7.5460    3.9600   13.6270 N.ar  500  NAD500     -0.2040
     20  C2A        6.9370    3.6010   14.7740 C.ar  500  NAD500      0.2016
     21  N3A        5.6910    2.9610   14.7830 N.ar  500  NAD500     -0.2048
     22  C4A        5.1280    2.7260   13.5240 C.ar  500  NAD500      0.1692
     23  O3         1.2660   -2.3600    9.4620 O.3   500  NAD500     -0.2703
     24  PN        -0.3250   -2.0590    9.5610 P.3   500  NAD500      0.2189
     25  O1N       -0.5690   -0.7180    9.0230 O.2   500  NAD500     -0.5170
     26  O2N       -0.7210   -2.3540   10.9700 O.3   500  NAD500     -0.4371
     27  O5D       -0.8610   -3.1150    8.4810 O.3   500  NAD500     -0.3112
     28  C5D       -0.7740   -4.5430    8.7110 C.3   500  NAD500      0.1813
     29  C4D       -1.8320   -5.2170    7.9150 C.3   500  NAD500      0.1799
     30  O4D       -2.9540   -4.2620    7.6560 O.3   500  NAD500     -0.3327
     31  C3D       -1.3800   -5.7030    6.4880 C.3   500  NAD500      0.2158
     32  O3D       -1.8050   -7.0690    6.2670 O.3   500  NAD500     -0.2175
     33  C2D       -2.0920   -4.7560    5.5020 C.3   500  NAD500      0.2309
     34  O2D       -2.3150   -5.3910    4.2670 O.3   500  NAD500     -0.2158
     35  C1D       -3.4070   -4.3790    6.2910 C.3   500  NAD500      0.2261
     36  N1N       -4.1240   -3.0870    5.8990 N.pl3 500  NAD500     -0.2831
     37  C2N       -3.7350   -1.8870    6.6270 C.2   500  NAD500      0.0633
     38  C3N       -3.8180   -0.6430    6.1140 C.2   500  NAD500      0.0490
     39  C7N       -3.4340    0.5730    6.9220 C.2   500  NAD500      0.2814
     40  O7N       -3.9530    1.6700    6.6070 O.2   500  NAD500     -0.2670
     41  N7N       -2.5850    0.4520    7.9500 N.am  500  NAD500     -0.0839
     42  C4N       -4.3230   -0.4050    4.6980 C.3   500  NAD500      0.0341
     43  C5N       -4.0510   -1.6160    3.8560 C.3   500  NAD500      0.0264
     44  C6N       -4.2640   -2.8860    4.4620 C.3   500  NAD500      0.0934
@<TRIPOS>BOND
     1     1    23    1
     2     1     3    2
     3     1     2    1
     4     1     4    1
     5     4     5    1
     6     5     6    1
     7     6     8    1
     8     6     7    1
     9     7    12    1
    10     8    10    1
    11     8     9    1
    12    10    12    1
    13    10    11    1
    14    12    13    1
    15    13    14   ar
    16    13    22   ar
    17    14    15   ar
    18    15    16   ar
    19    16    17   ar
    20    16    22   ar
    21    17    18    1
    22    17    19   ar
    23    19    20   ar
    24    20    21   ar
    25    21    22   ar
    26    23    24    1
    27    24    27    1
    28    24    25    2
    29    24    26    1
    30    27    28    1
    31    28    29    1
    32    29    31    1
    33    29    30    1
    34    30    35    1
    35    31    33    1
    36    31    32    1
    37    33    34    1
    38    33    35    1
    39    35    36    1
    40    36    44    1
    41    36    37    1
    42    37    38    2
    43    38    42    1
    44    38    39    1
    45    39    40    2
    46    39    41   am
    47    42    43    1
    48    43    44    1
