@<TRIPOS>MOLECULE
4guu_FA9_1_ligand
  104   111     1     0     0
SMALL
NO_CHARGES


@<TRIPOS>ATOM
     1 O4          25.5090     8.8710    11.4300 O.2          1 FA9901   0.0000
     2 O2          22.3800     6.9260    13.7060 O.2          1 FA9901   0.0000
     3 C4          24.8460     7.9330    11.6950 C.2          1 FA9901   0.0000
     4 N3          23.8270     8.0330    12.4980 N.am         1 FA9901   0.0000
     5 C2          23.4220     6.9890    13.1820 C.2          1 FA9901   0.0000
     6 N1          24.2280     5.9950    13.2670 N.am         1 FA9901   0.0000
     7 C10         24.8590     5.4300    12.1270 C.3          1 FA9901   0.0000
     8 C4A         25.1720     6.5600    11.1530 C.3          1 FA9901   0.0000
     9 C3B         24.5740     6.2890     9.7910 C.3          1 FA9901   0.0000
    10 CB1         23.5580     5.2920     9.4440 C.ar         1 FA9901   0.0000
    11 CB2         23.9280     4.5020     8.3810 C.ar         1 FA9901   0.0000
    12 CB3         23.1510     3.4580     7.9410 C.ar         1 FA9901   0.0000
    13 CB4         21.9820     3.2200     8.6060 C.ar         1 FA9901   0.0000
    14 CB5         21.6120     4.0080     9.6690 C.ar         1 FA9901   0.0000
    15 CB6         22.4130     5.0210    10.1030 C.ar         1 FA9901   0.0000
    16 C2B         24.9550     7.3770     8.8730 C.3          1 FA9901   0.0000
    17 C1B         26.3670     7.1670     9.3080 C.2          1 FA9901   0.0000
    18 O1B         27.2310     7.6140     8.6250 O.2          1 FA9901   0.0000
    19 N5          26.4200     6.4950    10.4740 N.am         1 FA9901   0.0000
    20 C5A         27.4250     5.6740    10.9710 C.ar         1 FA9901   0.0000
    21 C6          28.6810     5.5860    10.4350 C.ar         1 FA9901   0.0000
    22 C7          29.6270     4.7360    10.9580 C.ar         1 FA9901   0.0000
    23 C7M         31.0030     4.6530    10.3900 C.3          1 FA9901   0.0000
    24 C8          29.3450     3.8920    12.1090 C.ar         1 FA9901   0.0000
    25 C8M         30.4060     2.9960    12.6650 C.3          1 FA9901   0.0000
    26 C9          28.1150     3.9690    12.6500 C.ar         1 FA9901   0.0000
    27 C9A         27.1530     4.7820    12.1050 C.ar         1 FA9901   0.0000
    28 N10         25.9720     4.7950    12.7860 N.pl3        1 FA9901   0.0000
    29 C1'         25.6860     3.5320    13.4580 C.3          1 FA9901   0.0000
    30 C2'         25.6970     3.7670    14.9510 C.3          1 FA9901   0.0000
    31 O2'         26.8950     4.4180    15.2460 O.3          1 FA9901   0.0000
    32 C3'         25.6160     2.5140    15.7930 C.3          1 FA9901   0.0000
    33 O3'         24.4330     1.8800    15.4910 O.3          1 FA9901   0.0000
    34 C4'         25.5730     2.7190    17.3070 C.3          1 FA9901   0.0000
    35 O4'         26.7530     3.3600    17.7070 O.3          1 FA9901   0.0000
    36 C5'         25.4320     1.3690    18.0080 C.3          1 FA9901   0.0000
    37 O5'         25.4670     1.3580    19.4130 O.3          1 FA9901   0.0000
    38 P           25.5450     0.0840    20.3020 P.3          1 FA9901   0.0000
    39 O1P         25.3480     0.6440    21.5590 O.co2        1 FA9901   0.0000
    40 O2P         24.6070    -0.8520    19.8630 O.co2        1 FA9901  -1.0000
    41 O3P         26.9600    -0.5010    19.9770 O.3          1 FA9901   0.0000
    42 PA          28.4120     0.0980    19.9750 P.3          1 FA9901   0.0000
    43 O1A         29.1400    -0.6720    19.0560 O.co2        1 FA9901   0.0000
    44 O2A         28.4380     1.5110    19.8120 O.co2        1 FA9901  -1.0000
    45 OA5         28.9710    -0.1570    21.4080 O.3          1 FA9901   0.0000
    46 CA5         29.1010    -1.4240    21.9760 C.3          1 FA9901   0.0000
    47 CA4         30.3240    -1.5370    22.8260 C.3          1 FA9901   0.0000
    48 OA4         30.5580    -2.8230    23.3200 O.3          1 FA9901   0.0000
    49 CA3         31.6180    -1.1030    22.1830 C.3          1 FA9901   0.0000
    50 OA3         31.9930     0.0370    22.8920 O.3          1 FA9901   0.0000
    51 CA2         32.5610    -2.2550    22.4060 C.3          1 FA9901   0.0000
    52 OA2         33.8950    -1.9400    22.7000 O.3          1 FA9901   0.0000
    53 CA1         31.9190    -2.8910    23.5830 C.3          1 FA9901   0.0000
    54 N9A         32.2670    -4.2810    23.7130 N.pl3        1 FA9901   0.0000
    55 C8A         32.2910    -5.1370    22.7480 C.2          1 FA9901   0.0000
    56 N7A         32.6090    -6.3130    23.2050 N.2          1 FA9901   0.0000
    57 C5C         32.8010    -6.2360    24.4860 C.ar         1 FA9901   0.0000
    58 C4C         32.5900    -4.8700    24.8330 C.ar         1 FA9901   0.0000
    59 N3A         32.7410    -4.5090    26.0970 N.ar         1 FA9901   0.0000
    60 C2A         33.0730    -5.4090    26.9960 C.ar         1 FA9901   0.0000
    61 N1A         33.3140    -6.6830    26.7530 N.ar         1 FA9901   0.0000
    62 C6A         33.1820    -7.1630    25.5550 C.ar         1 FA9901   0.0000
    63 N6A         33.4010    -8.4200    25.3390 N.pl3        1 FA9901   0.0000
    64 H1          23.3515     8.9074    12.5941 H            1 FA9901   0.0000
    65 H2          24.4188     5.6041    14.1675 H            1 FA9901   0.0000
    66 H3          24.2670     4.7479    11.6977 H            1 FA9901   0.0000
    67 H3B         25.3329     5.7027     9.5077 H            1 FA9901   0.0000
    68 HB2         24.7907     4.6937     7.9130 H            1 FA9901   0.0000
    69 HB3         23.4305     2.8941     7.1639 H            1 FA9901   0.0000
    70 HB4         21.3911     2.4668     8.3171 H            1 FA9901   0.0000
    71 HB5         20.7420     3.8354    10.1309 H            1 FA9901   0.0000
    72 HB6         22.1537     5.5598    10.9046 H            1 FA9901   0.0000
    73 H2B1        24.5756     8.2720     9.1077 H            1 FA9901   0.0000
    74 H2B2        24.7841     7.1855     7.9065 H            1 FA9901   0.0000
    75 H12         28.9162     6.1525     9.6452 H            1 FA9901   0.0000
    76 H7M1        31.5365     3.9823    10.9054 H            1 FA9901   0.0000
    77 H7M2        30.9516     4.3726     9.4315 H            1 FA9901   0.0000
    78 H7M3        31.4438     5.5484    10.4522 H            1 FA9901   0.0000
    79 H8M1        30.0406     2.4926    13.4480 H            1 FA9901   0.0000
    80 H8M2        30.6992     2.3496    11.9606 H            1 FA9901   0.0000
    81 H8M3        31.1875     3.5468    12.9581 H            1 FA9901   0.0000
    82 H19         27.8989     3.4257    13.4612 H            1 FA9901   0.0000
    83 H1'1        26.3838     2.8571    13.2180 H            1 FA9901   0.0000
    84 H1'2        24.7870     3.1965    13.1764 H            1 FA9901   0.0000
    85 H2'         24.9343     4.3679    15.1901 H            1 FA9901   0.0000
    86 H23         27.1875     4.1749    16.1708 H            1 FA9901   0.0000
    87 H3'         26.3808     1.9121    15.5632 H            1 FA9901   0.0000
    88 H25         23.9391     2.4076    14.7998 H            1 FA9901   0.0000
    89 H4'         24.7894     3.2950    17.5398 H            1 FA9901   0.0000
    90 H27         27.2430     2.7803    18.3580 H            1 FA9901   0.0000
    91 H5'1        26.1773     0.7854    17.6857 H            1 FA9901   0.0000
    92 H5'2        24.5561     0.9764    17.7276 H            1 FA9901   0.0000
    93 HA51        29.1543    -2.1019    21.2428 H            1 FA9901   0.0000
    94 HA52        28.2972    -1.6075    22.5419 H            1 FA9901   0.0000
    95 HA4         30.1815    -0.9440    23.6185 H            1 FA9901   0.0000
    96 HA3         31.4983    -0.9083    21.2095 H            1 FA9901   0.0000
    97 H34         32.1151    -0.1957    23.8569 H            1 FA9901   0.0000
    98 HA2         32.5251    -2.8773    21.6241 H            1 FA9901   0.0000
    99 H36         33.9322    -1.3970    23.5389 H            1 FA9901   0.0000
   100 HA1         32.1423    -2.3913    24.4199 H            1 FA9901   0.0000
   101 H8A         32.0942    -4.9276    21.7902 H            1 FA9901   0.0000
   102 H2A         33.1493    -5.1017    27.9446 H            1 FA9901   0.0000
   103 H6A1        33.6593    -9.0199    26.0963 H            1 FA9901   0.0000
   104 H6A2        33.3120    -8.7915    24.4148 H            1 FA9901   0.0000
@<TRIPOS>BOND
     1    1    3       2
     2    2    5       2
     3    3    4      am
     4    3    8       1
     5    4    5      am
     6    5    6      am
     7    6    7       1
     8    7    8       1
     9    7   28       1
    10    8    9       1
    11    8   19       1
    12    9   10       1
    13    9   16       1
    14   10   11      ar
    15   10   15      ar
    16   11   12      ar
    17   12   13      ar
    18   13   14      ar
    19   14   15      ar
    20   16   17       1
    21   17   18       2
    22   17   19      am
    23   19   20       1
    24   20   21      ar
    25   20   27      ar
    26   21   22      ar
    27   22   23       1
    28   22   24      ar
    29   24   25       1
    30   24   26      ar
    31   26   27      ar
    32   27   28       1
    33   28   29       1
    34   29   30       1
    35   30   31       1
    36   30   32       1
    37   32   33       1
    38   32   34       1
    39   34   35       1
    40   34   36       1
    41   36   37       1
    42   37   38       1
    43   38   39      ar
    44   38   40      ar
    45   38   41       1
    46   41   42       1
    47   42   43      ar
    48   42   44      ar
    49   42   45       1
    50   45   46       1
    51   46   47       1
    52   47   48       1
    53   47   49       1
    54   48   53       1
    55   49   50       1
    56   49   51       1
    57   51   52       1
    58   51   53       1
    59   53   54       1
    60   54   55       1
    61   54   58       1
    62   55   56       2
    63   56   57       1
    64   57   58      ar
    65   57   62      ar
    66   58   59      ar
    67   59   60      ar
    68   60   61      ar
    69   61   62      ar
    70   62   63       1
    71    4   64       1
    72    6   65       1
    73    7   66       1
    74    9   67       1
    75   11   68       1
    76   12   69       1
    77   13   70       1
    78   14   71       1
    79   15   72       1
    80   16   73       1
    81   16   74       1
    82   21   75       1
    83   23   76       1
    84   23   77       1
    85   23   78       1
    86   25   79       1
    87   25   80       1
    88   25   81       1
    89   26   82       1
    90   29   83       1
    91   29   84       1
    92   30   85       1
    93   31   86       1
    94   32   87       1
    95   33   88       1
    96   34   89       1
    97   35   90       1
    98   36   91       1
    99   36   92       1
   100   63  104       1
   101   63  103       1
   102   46   93       1
   103   46   94       1
   104   47   95       1
   105   49   96       1
   106   50   97       1
   107   51   98       1
   108   52   99       1
   109   53  100       1
   110   55  101       1
   111   60  102       1
@<TRIPOS>SUBSTRUCTURE
     1 FA9901      1 GROUP             4 A     FA9     0 **** FA9 A 901
