@<TRIPOS>MOLECULE
1lnx_URI_5_ligand
   29    30     1     0     0
SMALL
NO_CHARGES


@<TRIPOS>ATOM
     1 N1          31.0230    44.3290    98.5920 N.pl3        1 URI8007   0.0000
     2 C2          31.6240    43.0190    98.8120 C.2          1 URI8007   0.0000
     3 N3          31.8300    42.7020   100.1640 N.pl3        1 URI8007   0.0000
     4 C4          31.5250    43.4990   101.2890 C.2          1 URI8007   0.0000
     5 C5          30.9340    44.7980   101.0060 C.2          1 URI8007   0.0000
     6 C6          30.7110    45.1570    99.7180 C.2          1 URI8007   0.0000
     7 O2          31.9340    42.2230    97.9210 O.2          1 URI8007   0.0000
     8 O4          31.7710    43.0560   102.4150 O.2          1 URI8007   0.0000
     9 C1'         30.7370    44.7510    97.1550 C.3          1 URI8007   0.0000
    10 C2'         29.2650    44.8710    96.7750 C.3          1 URI8007   0.0000
    11 C3'         29.0640    46.2860    96.1770 C.3          1 URI8007   0.0000
    12 C4'         30.4770    46.9500    96.2430 C.3          1 URI8007   0.0000
    13 O2'         28.8580    43.8040    95.9030 O.3          1 URI8007   0.0000
    14 O3'         28.5020    46.3440    94.8470 O.3          1 URI8007   0.0000
    15 O4'         31.3990    45.9720    96.8590 O.3          1 URI8007   0.0000
    16 C5'         30.5440    48.2980    96.9440 C.3          1 URI8007   0.0000
    17 O5'         29.6720    49.2700    96.3400 O.3          1 URI8007   0.0000
    18 H1          32.2397    41.8094   100.3519 H            1 URI8007   0.0000
    19 H2          30.6951    45.4187   101.7528 H            1 URI8007   0.0000
    20 H3          30.3043    46.0538    99.5437 H            1 URI8007   0.0000
    21 H1'         31.1353    44.0520    96.5611 H            1 URI8007   0.0000
    22 H2'         28.7230    44.8094    97.6131 H            1 URI8007   0.0000
    23 H3'         28.4575    46.7941    96.7886 H            1 URI8007   0.0000
    24 H4'         30.7817    47.0911    95.3011 H            1 URI8007   0.0000
    25 H8          29.6375    43.5098    95.3499 H            1 URI8007   0.0000
    26 H9          28.7676    45.5259    94.3369 H            1 URI8007   0.0000
    27 H5'1        31.4837    48.6373    96.9000 H            1 URI8007   0.0000
    28 H5'2        30.2777    48.1770    97.9003 H            1 URI8007   0.0000
    29 H5'         28.8806    48.8061    95.9420 H            1 URI8007   0.0000
@<TRIPOS>BOND
     1    1    2       1
     2    1    6       1
     3    1    9       1
     4    2    3       1
     5    2    7       2
     6    3    4       1
     7    4    5       1
     8    4    8       2
     9    5    6       2
    10    9   10       1
    11    9   15       1
    12   10   11       1
    13   10   13       1
    14   11   12       1
    15   11   14       1
    16   12   15       1
    17   12   16       1
    18   16   17       1
    19    3   18       1
    20    5   19       1
    21    6   20       1
    22    9   21       1
    23   10   22       1
    24   11   23       1
    25   12   24       1
    26   13   25       1
    27   14   26       1
    28   16   27       1
    29   16   28       1
    30   17   29       1
@<TRIPOS>SUBSTRUCTURE
     1 URI8007     1 GROUP             4 E     URI     0 **** URI E8007
