@<TRIPOS>MOLECULE
5ah5_LSS_1_ligand
   57    59     1     0     0
SMALL
NO_CHARGES


@<TRIPOS>ATOM
     1 C1          16.6480    -2.2890     4.9200 C.2          1 LSS1818   0.0000
     2 N1          23.6410     2.8020    -1.3800 N.ar         1 LSS1818   0.0000
     3 O1          17.3970    -1.4640     5.3560 O.2          1 LSS1818   0.0000
     4 S1          16.5120    -1.3020     2.6190 S.o2         1 LSS1818   0.0000
     5 C2          24.1840     1.6690    -0.9270 C.ar         1 LSS1818   0.0000
     6 N2          16.1810    -2.2960     3.6940 N.am         1 LSS1818   0.0000
     7 O2          21.9790    -0.2200     3.2680 O.3          1 LSS1818   0.0000
     8 N3          23.4620     0.7410    -0.2890 N.ar         1 LSS1818   0.0000
     9 O3          22.0440    -3.0650     3.1340 O.3          1 LSS1818   0.0000
    10 C4          22.1200     0.9820    -0.1820 C.ar         1 LSS1818   0.0000
    11 N4          14.9430    -4.0440     5.3680 N.4          1 LSS1818   1.0000
    12 O4          20.3960    -1.9520     0.6310 O.3          1 LSS1818   0.0000
    13 C5          21.5230     2.1560    -0.6540 C.ar         1 LSS1818   0.0000
    14 O5          18.0710    -1.4570     2.3330 O.3          1 LSS1818   0.0000
    15 C6          22.3320     3.0890    -1.2570 C.ar         1 LSS1818   0.0000
    16 N6          21.8130     4.2320    -1.7370 N.pl3        1 LSS1818   0.0000
    17 C7          16.8960    -5.3350     7.3510 C.3          1 LSS1818   0.0000
    18 N7          20.2130     2.1460    -0.3590 N.2          1 LSS1818   0.0000
    19 C8          19.9920     1.0050     0.3200 C.2          1 LSS1818   0.0000
    20 C9          17.2680    -4.3470     6.2530 C.3          1 LSS1818   0.0000
    21 N9          21.1550     0.2760     0.3730 N.pl3        1 LSS1818   0.0000
    22 CA          16.1740    -3.3320     5.8800 C.3          1 LSS1818   0.0000
    23 C10         16.6700    -4.7110     8.7210 C.3          1 LSS1818   0.0000
    24 C11         18.0200    -6.3680     7.5030 C.3          1 LSS1818   0.0000
    25 O1A         16.3700     0.0760     2.9910 O.2          1 LSS1818   0.0000
    26 C21         21.3630    -1.0000     1.0450 C.3          1 LSS1818   0.0000
    27 C22         21.0590    -0.8890     2.5040 C.3          1 LSS1818   0.0000
    28 C23         20.8470    -2.3060     2.9540 C.3          1 LSS1818   0.0000
    29 C24         20.0930    -2.7950     1.7390 C.3          1 LSS1818   0.0000
    30 C25         18.5770    -2.7280     1.8980 C.3          1 LSS1818   0.0000
    31 O2A         15.9530    -1.6120     1.3270 O.2          1 LSS1818   0.0000
    32 H1          25.1609     1.5094    -1.0692 H            1 LSS1818   0.0000
    33 H2          15.5466    -3.0307     3.4537 H            1 LSS1818   0.0000
    34 H3          21.5168     0.2174     4.0394 H            1 LSS1818   0.0000
    35 H4          22.2814    -3.5215     2.2765 H            1 LSS1818   0.0000
    36 H5          15.2183    -4.8407     4.8300 H            1 LSS1818   0.0000
    37 H6          14.3838    -4.3414     6.1419 H            1 LSS1818   0.0000
    38 H7          20.8366     4.4206    -1.6321 H            1 LSS1818   0.0000
    39 H8          22.4033     4.8939    -2.1990 H            1 LSS1818   0.0000
    40 H9          16.0609    -5.8127     7.0783 H            1 LSS1818   0.0000
    41 H10         19.1185     0.7311     0.7225 H            1 LSS1818   0.0000
    42 H11         17.4964    -4.8700     5.4319 H            1 LSS1818   0.0000
    43 H12         18.0720    -3.8361     6.5572 H            1 LSS1818   0.0000
    44 HA          15.9118    -2.8597     6.7215 H            1 LSS1818   0.0000
    45 H14         16.4315    -5.4263     9.3779 H            1 LSS1818   0.0000
    46 H15         17.5057    -4.2498     9.0192 H            1 LSS1818   0.0000
    47 H16         15.9243    -4.0470     8.6659 H            1 LSS1818   0.0000
    48 H17         17.7795    -7.0187     8.2232 H            1 LSS1818   0.0000
    49 H18         18.1424    -6.8569     6.6393 H            1 LSS1818   0.0000
    50 H19         18.8707    -5.9017     7.7456 H            1 LSS1818   0.0000
    51 H20         22.2914    -1.3399     0.8947 H            1 LSS1818   0.0000
    52 H21         20.1860    -0.4099     2.5947 H            1 LSS1818   0.0000
    53 H22         20.2726    -2.3413     3.7718 H            1 LSS1818   0.0000
    54 H23         20.3668    -3.7339     1.5303 H            1 LSS1818   0.0000
    55 H24         18.1621    -2.9414     1.0135 H            1 LSS1818   0.0000
    56 H25         18.3042    -3.4173     2.5692 H            1 LSS1818   0.0000
    57 H26         14.4124    -3.4210     4.7933 H            1 LSS1818   0.0000
@<TRIPOS>BOND
     1    1    3       2
     2    1    6      am
     3    1   22       1
     4    2    5      ar
     5    2   15      ar
     6    4    6       1
     7    4   14       1
     8    4   25       2
     9    4   31       2
    10    5    8      ar
    11    7   27       1
    12    8   10      ar
    13    9   28       1
    14   10   13      ar
    15   10   21       1
    16   11   22       1
    17   12   26       1
    18   12   29       1
    19   13   15      ar
    20   13   18       1
    21   14   30       1
    22   15   16       1
    23   17   20       1
    24   17   23       1
    25   17   24       1
    26   18   19       2
    27   19   21       1
    28   20   22       1
    29   21   26       1
    30   26   27       1
    31   27   28       1
    32   28   29       1
    33   29   30       1
    34    5   32       1
    35    6   33       1
    36    7   34       1
    37    9   35       1
    38   11   36       1
    39   11   37       1
    40   16   38       1
    41   16   39       1
    42   17   40       1
    43   19   41       1
    44   20   42       1
    45   20   43       1
    46   22   44       1
    47   23   45       1
    48   23   46       1
    49   23   47       1
    50   24   48       1
    51   24   49       1
    52   24   50       1
    53   26   51       1
    54   27   52       1
    55   28   53       1
    56   29   54       1
    57   30   55       1
    58   30   56       1
    59   11   57       1
@<TRIPOS>SUBSTRUCTURE
     1 LSS1818     1 GROUP             4 A     LSS     0 **** LSS A1818
