@<TRIPOS>MOLECULE
3g11_P9C_1_ligand
   70    75     1     0     0
SMALL
NO_CHARGES


@<TRIPOS>ATOM
     1 O16         62.7990    37.4710    43.7220 O.3          1 P9C413   0.0000
     2 O19         59.0270    36.7280    48.2770 O.2          1 P9C413   0.0000
     3 O20         56.5480    38.7060    45.0310 O.2          1 P9C413   0.0000
     4 O30         57.7000    41.4350    41.8620 O.3          1 P9C413   0.0000
     5 O31         55.9800    37.0530    42.6090 O.3          1 P9C413   0.0000
     6 O32         53.7920    36.3060    41.3510 O.co2        1 P9C413   0.0000
     7 O33         52.7080    37.7870    40.0380 O.co2        1 P9C413  -1.0000
     8 N28         57.8700    38.9170    43.1510 N.am         1 P9C413   0.0000
     9 C1          57.7010    38.6580    44.4670 C.2          1 P9C413   0.0000
    10 C2          58.9020    38.3010    45.3290 C.3          1 P9C413   0.0000
    11 C3          58.9420    36.7930    45.3160 C.3          1 P9C413   0.0000
    12 C4          60.1280    36.1770    46.1680 C.3          1 P9C413   0.0000
    13 C5          60.0730    36.5950    47.6810 C.2          1 P9C413   0.0000
    14 C6          61.3430    36.8420    48.4240 C.3          1 P9C413   0.0000
    15 C7          62.5040    35.9830    47.9060 C.3          1 P9C413   0.0000
    16 C8          62.7520    36.1400    46.3850 C.3          1 P9C413   0.0000
    17 C9          61.4630    36.7380    45.6140 C.3          1 P9C413   0.0000
    18 C10         61.7030    36.5690    44.0630 C.3          1 P9C413   0.0000
    19 C11         62.2010    35.2010    43.5870 C.3          1 P9C413   0.0000
    20 C12         63.6180    35.2180    44.2590 C.3          1 P9C413   0.0000
    21 C13         63.2650    34.7510    45.7530 C.3          1 P9C413   0.0000
    22 C14         63.8510    37.0930    45.8810 C.3          1 P9C413   0.0000
    23 C15         63.9380    36.7580    44.3380 C.3          1 P9C413   0.0000
    24 C17         65.2550    37.3590    43.6230 C.3          1 P9C413   0.0000
    25 C18         60.0520    34.6220    46.0820 C.3          1 P9C413   0.0000
    26 C21         53.6510    37.4430    40.7990 C.2          1 P9C413   0.0000
    27 C22         54.6830    38.5960    41.0070 C.ar         1 P9C413   0.0000
    28 C23         55.7930    38.2800    41.9340 C.ar         1 P9C413   0.0000
    29 C24         56.7490    39.2750    42.1940 C.ar         1 P9C413   0.0000
    30 C25         56.6800    40.5280    41.5620 C.ar         1 P9C413   0.0000
    31 C26         55.6030    40.8450    40.6410 C.ar         1 P9C413   0.0000
    32 C27         54.6100    39.8660    40.3890 C.ar         1 P9C413   0.0000
    33 C34         64.2980    37.3670    49.1840 C.ar         1 P9C413   0.0000
    34 C35         64.3390    34.9000    49.2500 C.ar         1 P9C413   0.0000
    35 C36         65.4790    37.4850    50.0400 C.ar         1 P9C413   0.0000
    36 C37         66.0470    36.2790    50.4600 C.ar         1 P9C413   0.0000
    37 C38         65.5150    35.0040    50.0880 C.ar         1 P9C413   0.0000
    38 C39         63.7640    36.0770    48.8250 C.ar         1 P9C413   0.0000
    39 H1          57.7021    42.3422    41.4413 H            1 P9C413   0.0000
    40 H2          55.3287    36.3056    42.4774 H            1 P9C413   0.0000
    41 H3          58.7986    38.8692    42.7829 H            1 P9C413   0.0000
    42 H4          58.7824    38.6433    46.2609 H            1 P9C413   0.0000
    43 H5          59.7415    38.6801    44.9398 H            1 P9C413   0.0000
    44 H6          59.0430    36.4885    44.3689 H            1 P9C413   0.0000
    45 H7          58.0778    36.4515    45.6856 H            1 P9C413   0.0000
    46 H8          61.1951    36.6319    49.3904 H            1 P9C413   0.0000
    47 H9          61.5892    37.8063    48.3264 H            1 P9C413   0.0000
    48 H10         62.1858    35.0409    48.0123 H            1 P9C413   0.0000
    49 H11         61.4547    37.7215    45.7948 H            1 P9C413   0.0000
    50 H12         60.8785    36.8270    43.5593 H            1 P9C413   0.0000
    51 H13         62.2581    35.1475    42.5901 H            1 P9C413   0.0000
    52 H14         61.6315    34.4535    43.9289 H            1 P9C413   0.0000
    53 H15         64.3115    34.6656    43.7965 H            1 P9C413   0.0000
    54 H16         62.5473    34.0547    45.7617 H            1 P9C413   0.0000
    55 H17         64.0719    34.4041    46.2312 H            1 P9C413   0.0000
    56 H18         64.7217    36.9100    46.3375 H            1 P9C413   0.0000
    57 H19         63.5924    38.0479    46.0268 H            1 P9C413   0.0000
    58 H20         66.0693    36.9153    43.9972 H            1 P9C413   0.0000
    59 H21         65.2062    37.1903    42.6385 H            1 P9C413   0.0000
    60 H22         65.3052    38.3436    43.7904 H            1 P9C413   0.0000
    61 H23         60.7964    34.2218    46.6165 H            1 P9C413   0.0000
    62 H24         59.1747    34.3105    46.4470 H            1 P9C413   0.0000
    63 H25         60.1362    34.3364    45.1273 H            1 P9C413   0.0000
    64 H26         55.5628    41.7380    40.1927 H            1 P9C413   0.0000
    65 H27         53.8527    40.0745    39.7701 H            1 P9C413   0.0000
    66 H28         63.8539    38.1952    48.8423 H            1 P9C413   0.0000
    67 H29         63.9604    34.0115    48.9909 H            1 P9C413   0.0000
    68 H30         65.8556    38.3719    50.3074 H            1 P9C413   0.0000
    69 H31         66.8581    36.3085    51.0442 H            1 P9C413   0.0000
    70 H32         65.9629    34.1708    50.4122 H            1 P9C413   0.0000
@<TRIPOS>BOND
     1    1   18       1
     2    1   23       1
     3    2   13       2
     4    3    9       2
     5    4   30       1
     6    5   28       1
     7    6   26      ar
     8    7   26      ar
     9    8    9      am
    10    8   29       1
    11    9   10       1
    12   10   11       1
    13   11   12       1
    14   12   13       1
    15   12   17       1
    16   12   25       1
    17   13   14       1
    18   14   15       1
    19   15   16       1
    20   15   38       1
    21   16   17       1
    22   16   21       1
    23   16   22       1
    24   17   18       1
    25   18   19       1
    26   19   20       1
    27   20   21       1
    28   20   23       1
    29   22   23       1
    30   23   24       1
    31   26   27       1
    32   27   28      ar
    33   27   32      ar
    34   28   29      ar
    35   29   30      ar
    36   30   31      ar
    37   31   32      ar
    38   33   35      ar
    39   33   38      ar
    40   34   37      ar
    41   34   38      ar
    42   35   36      ar
    43   36   37      ar
    44    4   39       1
    45    5   40       1
    46   37   70       1
    47    8   41       1
    48   10   42       1
    49   10   43       1
    50   11   44       1
    51   11   45       1
    52   14   46       1
    53   14   47       1
    54   15   48       1
    55   17   49       1
    56   18   50       1
    57   19   51       1
    58   19   52       1
    59   20   53       1
    60   21   54       1
    61   21   55       1
    62   22   56       1
    63   22   57       1
    64   24   58       1
    65   24   59       1
    66   24   60       1
    67   25   61       1
    68   25   62       1
    69   25   63       1
    70   31   64       1
    71   32   65       1
    72   33   66       1
    73   34   67       1
    74   35   68       1
    75   36   69       1
@<TRIPOS>SUBSTRUCTURE
     1 P9C413      1 GROUP             4 A     P9C     0 **** P9C A 413
