@<TRIPOS>MOLECULE
1k6m_AGS_1_ligand
   43    45     1     0     0
SMALL
NO_CHARGES


@<TRIPOS>ATOM
     1 PG         -18.6210    43.7350    29.3770 P.3          1 AGS503   0.0000
     2 S1G        -19.9150    44.8320    28.8780 S.2          1 AGS503   0.0000
     3 O2G        -19.0920    42.2850    29.2350 O.co2        1 AGS503  -1.0000
     4 O3G        -17.3220    44.0820    28.6900 O.co2        1 AGS503  -1.0000
     5 PB         -18.2710    42.7550    32.1380 P.3          1 AGS503   0.0000
     6 O1B        -19.3980    41.8740    31.7950 O.co2        1 AGS503   0.0000
     7 O2B        -16.9850    42.2280    32.5620 O.co2        1 AGS503  -1.0000
     8 O3B        -18.2720    43.9180    30.9750 O.3          1 AGS503   0.0000
     9 PA         -19.4640    44.7130    33.5260 P.3          1 AGS503   0.0000
    10 O1A        -18.3950    45.7750    33.4270 O.co2        1 AGS503   0.0000
    11 O2A        -20.5840    44.7460    32.5330 O.co2        1 AGS503  -1.0000
    12 O3A        -18.7060    43.3050    33.4750 O.3          1 AGS503   0.0000
    13 O5'        -20.0960    44.6260    34.9800 O.3          1 AGS503   0.0000
    14 C5'        -20.5390    45.7460    35.6170 C.3          1 AGS503   0.0000
    15 C4'        -20.6880    45.3220    37.0620 C.3          1 AGS503   0.0000
    16 O4'        -19.5130    44.9080    37.6280 O.3          1 AGS503   0.0000
    17 C3'        -21.2400    46.4230    38.0160 C.3          1 AGS503   0.0000
    18 O3'        -22.1740    45.7600    38.8850 O.3          1 AGS503   0.0000
    19 C2'        -20.0200    46.6800    38.9040 C.3          1 AGS503   0.0000
    20 O2'        -20.3150    46.9060    40.2920 O.3          1 AGS503   0.0000
    21 C1'        -19.4270    45.3110    38.9190 C.3          1 AGS503   0.0000
    22 N9         -18.0280    45.2730    39.3400 N.pl3        1 AGS503   0.0000
    23 C8         -17.0330    46.2450    39.3090 C.2          1 AGS503   0.0000
    24 N7         -15.7950    45.8890    39.7270 N.2          1 AGS503   0.0000
    25 C5         -15.9640    44.5640    40.0510 C.ar         1 AGS503   0.0000
    26 C6         -15.0610    43.4980    40.4390 C.ar         1 AGS503   0.0000
    27 N6         -13.5950    43.6790    40.5920 N.pl3        1 AGS503   0.0000
    28 N1         -15.5890    42.2350    40.5430 N.ar         1 AGS503   0.0000
    29 C2         -16.9120    41.9880    40.3450 C.ar         1 AGS503   0.0000
    30 N3         -17.8430    42.8950    39.9640 N.ar         1 AGS503   0.0000
    31 C4         -17.3450    44.1690    39.8580 C.ar         1 AGS503   0.0000
    32 H5'1       -21.4177    46.0421    35.2425 H            1 AGS503   0.0000
    33 H5'2       -19.8737    46.4878    35.5325 H            1 AGS503   0.0000
    34 H4'        -21.3249    44.5515    37.0877 H            1 AGS503   0.0000
    35 H3'        -21.6004    47.2339    37.5550 H            1 AGS503   0.0000
    36 H5         -22.8879    46.4038    39.1604 H            1 AGS503   0.0000
    37 H2'        -19.4008    47.3664    38.5226 H            1 AGS503   0.0000
    38 H7         -19.5500    46.5872    40.8516 H            1 AGS503   0.0000
    39 H1'        -19.9742    44.7092    39.5008 H            1 AGS503   0.0000
    40 H9         -17.2250    47.1730    38.9896 H            1 AGS503   0.0000
    41 H10        -13.0213    42.9059    40.8624 H            1 AGS503   0.0000
    42 H11        -13.1815    44.5740    40.4246 H            1 AGS503   0.0000
    43 H12        -17.2261    41.0505    40.4945 H            1 AGS503   0.0000
@<TRIPOS>BOND
     1    1    2       2
     2    1    3      ar
     3    1    4      ar
     4    1    8       1
     5    5    6      ar
     6    5    7      ar
     7    5    8       1
     8    5   12       1
     9    9   10      ar
    10    9   11      ar
    11    9   12       1
    12    9   13       1
    13   13   14       1
    14   14   15       1
    15   15   16       1
    16   15   17       1
    17   16   21       1
    18   17   18       1
    19   17   19       1
    20   19   20       1
    21   19   21       1
    22   21   22       1
    23   22   23       1
    24   22   31       1
    25   23   24       2
    26   24   25       1
    27   25   26      ar
    28   25   31      ar
    29   26   27       1
    30   26   28      ar
    31   28   29      ar
    32   29   30      ar
    33   30   31      ar
    34   29   43       1
    35   27   42       1
    36   27   41       1
    37   23   40       1
    38   14   32       1
    39   14   33       1
    40   15   34       1
    41   17   35       1
    42   18   36       1
    43   19   37       1
    44   20   38       1
    45   21   39       1
@<TRIPOS>SUBSTRUCTURE
     1 AGS503      1 GROUP             4 A     AGS     0 **** AGS A 503
