@<TRIPOS>MOLECULE
3v8v_SAM_4_ligand
   46    48     1     0     0
SMALL
NO_CHARGES


@<TRIPOS>ATOM
     1 N           -8.5110   -31.4570    -3.7440 N.4          1 SAM802   1.0000
     2 CA          -7.8170   -31.4020    -2.4110 C.3          1 SAM802   0.0000
     3 C           -6.2800   -31.3220    -2.5420 C.2          1 SAM802   0.0000
     4 O           -5.7200   -30.7270    -3.4850 O.2          1 SAM802   0.0000
     5 CB          -8.2750   -32.5550    -1.4970 C.3          1 SAM802   0.0000
     6 CG          -9.5720   -32.2900    -0.7100 C.3          1 SAM802   0.0000
     7 SD         -10.6620   -33.7090    -0.3800 S.3          1 SAM802   0.0000
     8 C5'        -11.4520   -33.2940     1.2070 C.3          1 SAM802   0.0000
     9 C4'        -12.2740   -32.0190     1.1450 C.3          1 SAM802   0.0000
    10 O4'        -13.5400   -32.3020     0.6400 O.3          1 SAM802   0.0000
    11 C3'        -12.4780   -31.3790     2.4990 C.3          1 SAM802   0.0000
    12 O3'        -12.0620   -30.0600     2.3850 O.3          1 SAM802   0.0000
    13 C2'        -13.9690   -31.3850     2.7190 C.3          1 SAM802   0.0000
    14 O2'        -14.4990   -30.2790     3.4500 O.3          1 SAM802   0.0000
    15 C1'        -14.4490   -31.4480     1.2830 C.3          1 SAM802   0.0000
    16 N9         -15.7610   -32.0730     1.1910 N.pl3        1 SAM802   0.0000
    17 C8         -16.1170   -33.3060     1.6130 C.2          1 SAM802   0.0000
    18 N7         -17.4090   -33.5160     1.3400 N.2          1 SAM802   0.0000
    19 C5         -17.8760   -32.4270     0.7330 C.ar         1 SAM802   0.0000
    20 C6         -19.1230   -32.1250     0.2270 C.ar         1 SAM802   0.0000
    21 N6         -20.1100   -33.0140     0.3270 N.pl3        1 SAM802   0.0000
    22 N1         -19.3250   -30.9020    -0.3620 N.ar         1 SAM802   0.0000
    23 C2         -18.2850   -30.0170    -0.4350 C.ar         1 SAM802   0.0000
    24 N3         -17.0360   -30.3010     0.0490 N.ar         1 SAM802   0.0000
    25 C4         -16.8490   -31.5030     0.6360 C.ar         1 SAM802   0.0000
    26 H1          -9.4997   -31.5077    -3.6032 H            1 SAM802   0.0000
    27 H2          -8.2907   -30.6347    -4.2687 H            1 SAM802   0.0000
    28 HA          -8.1110   -30.5538    -1.9704 H            1 SAM802   0.0000
    29 H4          -5.7133   -31.7630    -1.8460 H            1 SAM802   0.0000
    30 HB1         -7.5448   -32.7368    -0.8384 H            1 SAM802   0.0000
    31 HB2         -8.4186   -33.3638    -2.0672 H            1 SAM802   0.0000
    32 HG1        -10.1033   -31.6184    -1.2263 H            1 SAM802   0.0000
    33 HG2         -9.3116   -31.9010     0.1736 H            1 SAM802   0.0000
    34 H5'1       -10.7382   -33.1797     1.8980 H            1 SAM802   0.0000
    35 H5'2       -12.0533   -34.0483     1.4705 H            1 SAM802   0.0000
    36 H4'        -11.8191   -31.3658     0.5398 H            1 SAM802   0.0000
    37 H3'        -11.9892   -31.8662     3.2227 H            1 SAM802   0.0000
    38 H13        -12.6088   -29.5971     1.6873 H            1 SAM802   0.0000
    39 H2'        -14.2246   -32.2328     3.1836 H            1 SAM802   0.0000
    40 H15        -14.7435   -29.5462     2.8150 H            1 SAM802   0.0000
    41 H1'        -14.4511   -30.5406     0.8628 H            1 SAM802   0.0000
    42 H17        -15.5080   -33.9608     2.0606 H            1 SAM802   0.0000
    43 H18        -21.0156   -32.7989    -0.0386 H            1 SAM802   0.0000
    44 H19        -19.9453   -33.8964     0.7677 H            1 SAM802   0.0000
    45 H20        -18.4432   -29.1255    -0.8594 H            1 SAM802   0.0000
    46 H21         -8.2040   -32.2652    -4.2465 H            1 SAM802   0.0000
@<TRIPOS>BOND
     1    1    2       1
     2    2    3       1
     3    2    5       1
     4    3    4       2
     5    5    6       1
     6    6    7       1
     7    7    8       1
     8    8    9       1
     9    9   10       1
    10    9   11       1
    11   10   15       1
    12   11   12       1
    13   11   13       1
    14   13   14       1
    15   13   15       1
    16   15   16       1
    17   16   17       1
    18   16   25       1
    19   17   18       2
    20   18   19       1
    21   19   20      ar
    22   19   25      ar
    23   20   21       1
    24   20   22      ar
    25   22   23      ar
    26   23   24      ar
    27   24   25      ar
    28    1   26       1
    29    1   27       1
    30    2   28       1
    31    3   29       1
    32    5   30       1
    33    5   31       1
    34    6   32       1
    35    6   33       1
    36    8   34       1
    37    8   35       1
    38    9   36       1
    39   11   37       1
    40   12   38       1
    41   13   39       1
    42   14   40       1
    43   15   41       1
    44   17   42       1
    45   21   43       1
    46   21   44       1
    47   23   45       1
    48    1   46       1
@<TRIPOS>SUBSTRUCTURE
     1 SAM802      1 GROUP             4 B     SAM     0 **** SAM B 802
