@<TRIPOS>MOLECULE
4zqm_XMP_1_ligand
   35    37     1     0     0
SMALL
NO_CHARGES


@<TRIPOS>ATOM
     1 P          -19.3940    11.3560     5.6210 P.3          1 XMP601   0.0000
     2 O1P        -19.4310    12.8350     5.3370 O.co2        1 XMP601   0.0000
     3 O2P        -19.5870    11.0230     7.0800 O.co2        1 XMP601  -1.0000
     4 O5'        -20.5970    10.7580     4.7700 O.3          1 XMP601   0.0000
     5 O3P        -18.1620    10.6760     5.0580 O.co2        1 XMP601  -1.0000
     6 C5'        -21.9420    11.1490     4.9830 C.3          1 XMP601   0.0000
     7 C4'        -22.8250    10.5130     3.9360 C.3          1 XMP601   0.0000
     8 O4'        -22.9230     9.0900     4.1750 O.3          1 XMP601   0.0000
     9 C1'        -24.1540     8.6080     3.6430 C.3          1 XMP601   0.0000
    10 N9         -24.8310     7.8020     4.6680 N.pl3        1 XMP601   0.0000
    11 C4         -24.6850     6.4940     4.6870 C.2          1 XMP601   0.0000
    12 N3         -24.0550     5.6280     3.8940 N.pl3        1 XMP601   0.0000
    13 N1         -24.7440     3.8180     5.2510 N.pl3        1 XMP601   0.0000
    14 C2         -24.1170     4.3140     4.1690 C.2          1 XMP601   0.0000
    15 O2         -23.5440     3.5150     3.3970 O.2          1 XMP601   0.0000
    16 C6         -25.4090     4.6000     6.1150 C.2          1 XMP601   0.0000
    17 O6         -26.0030     4.1390     7.1100 O.2          1 XMP601   0.0000
    18 C5         -25.4090     6.0410     5.8700 C.2          1 XMP601   0.0000
    19 N7         -25.9080     7.1260     6.4720 N.2          1 XMP601   0.0000
    20 C8         -25.5500     8.2070     5.7370 C.2          1 XMP601   0.0000
    21 C2'        -24.9670     9.8090     3.1810 C.3          1 XMP601   0.0000
    22 O2'        -24.8010     9.9070     1.7650 O.3          1 XMP601   0.0000
    23 C3'        -24.2720    10.9530     3.9280 C.3          1 XMP601   0.0000
    24 O3'        -24.4660    12.2310     3.3680 O.3          1 XMP601   0.0000
    25 H5'1       -22.0136    12.1444     4.9190 H            1 XMP601   0.0000
    26 H5'2       -22.2354    10.8514     5.8915 H            1 XMP601   0.0000
    27 H4'        -22.4282    10.6687     3.0314 H            1 XMP601   0.0000
    28 H1'        -23.9587     8.0272     2.8527 H            1 XMP601   0.0000
    29 H5         -23.5403     5.9532     3.1007 H            1 XMP601   0.0000
    30 H6         -24.7134     2.8324     5.4171 H            1 XMP601   0.0000
    31 H7         -25.7819     9.1556     5.9525 H            1 XMP601   0.0000
    32 H2'        -25.9300     9.7276     3.4380 H            1 XMP601   0.0000
    33 H9         -24.8722    10.8648     1.4865 H            1 XMP601   0.0000
    34 H3'        -24.6053    10.9654     4.8707 H            1 XMP601   0.0000
    35 H11        -23.7662    12.4006     2.6741 H            1 XMP601   0.0000
@<TRIPOS>BOND
     1    1    2      ar
     2    1    3      ar
     3    1    4       1
     4    1    5      ar
     5    4    6       1
     6    6    7       1
     7    7    8       1
     8    7   23       1
     9    8    9       1
    10    9   10       1
    11    9   21       1
    12   10   11       1
    13   10   20       1
    14   11   12       1
    15   11   18       2
    16   12   14       1
    17   13   14       1
    18   13   16       1
    19   14   15       2
    20   16   17       2
    21   16   18       1
    22   18   19       1
    23   19   20       2
    24   21   22       1
    25   21   23       1
    26   23   24       1
    27   24   35       1
    28   23   34       1
    29    6   25       1
    30    6   26       1
    31    7   27       1
    32    9   28       1
    33   12   29       1
    34   13   30       1
    35   20   31       1
    36   21   32       1
    37   22   33       1
@<TRIPOS>SUBSTRUCTURE
     1 XMP601      1 GROUP             4 A     XMP     0 **** XMP A 601
