@<TRIPOS>MOLECULE
3oes_GNP_1_ligand
   45    47     1     0     0
SMALL
NO_CHARGES


@<TRIPOS>ATOM
     1 PG         -19.5370    23.0410     6.3090 P.3          1 GNP201   0.0000
     2 O1G        -19.3330    23.4620     7.7710 O.co2        1 GNP201   0.0000
     3 O2G        -20.8860    22.4680     5.9840 O.co2        1 GNP201  -1.0000
     4 O3G        -18.3910    22.1430     5.8830 O.co2        1 GNP201  -1.0000
     5 N3B        -19.3970    24.4490     5.4740 N.3          1 GNP201   0.0000
     6 PB         -19.6050    24.6270     3.8920 P.3          1 GNP201   0.0000
     7 O1B        -18.4720    24.0120     3.1250 O.co2        1 GNP201   0.0000
     8 O2B        -20.9590    24.1380     3.5640 O.co2        1 GNP201  -1.0000
     9 O3A        -19.5920    26.1700     3.5670 O.3          1 GNP201   0.0000
    10 PA         -20.8350    27.0850     3.6570 P.3          1 GNP201   0.0000
    11 O1A        -21.6880    26.9870     2.4650 O.co2        1 GNP201   0.0000
    12 O2A        -21.6010    26.9510     4.9180 O.co2        1 GNP201  -1.0000
    13 O5'        -20.3480    28.6120     3.5520 O.3          1 GNP201   0.0000
    14 C5'        -19.3750    29.1000     4.4450 C.3          1 GNP201   0.0000
    15 C4'        -19.5500    30.5860     4.6150 C.3          1 GNP201   0.0000
    16 O4'        -19.0020    31.2130     3.4370 O.3          1 GNP201   0.0000
    17 C3'        -21.0050    31.0170     4.7030 C.3          1 GNP201   0.0000
    18 O3'        -21.1740    32.0280     5.7000 O.3          1 GNP201   0.0000
    19 C2'        -21.3560    31.4960     3.2840 C.3          1 GNP201   0.0000
    20 O2'        -22.2190    32.6090     3.2970 O.3          1 GNP201   0.0000
    21 C1'        -20.0080    31.8690     2.6900 C.3          1 GNP201   0.0000
    22 N9         -19.7450    31.5440     1.2810 N.pl3        1 GNP201   0.0000
    23 C8         -19.8640    30.3220     0.6590 C.2          1 GNP201   0.0000
    24 N7         -19.5550    30.3330    -0.5920 N.2          1 GNP201   0.0000
    25 C5         -19.1760    31.6530    -0.8250 C.2          1 GNP201   0.0000
    26 C6         -18.7390    32.2540    -2.0200 C.2          1 GNP201   0.0000
    27 O6         -18.5730    31.6670    -3.1120 O.2          1 GNP201   0.0000
    28 N1         -18.4580    33.6190    -1.8620 N.pl3        1 GNP201   0.0000
    29 C2         -18.6180    34.3060    -0.6680 C.2          1 GNP201   0.0000
    30 N2         -18.3370    35.6250    -0.6680 N.pl3        1 GNP201   0.0000
    31 N3         -19.0580    33.7550     0.4680 N.2          1 GNP201   0.0000
    32 C4         -19.2880    32.4140     0.3140 C.2          1 GNP201   0.0000
    33 H3B        -20.0542    25.0725     5.8975 H            1 GNP201   0.0000
    34 H5'1       -18.4632    28.9113     4.0802 H            1 GNP201   0.0000
    35 H5'2       -19.4795    28.6485     5.3311 H            1 GNP201   0.0000
    36 H4'        -19.0543    30.8958     5.4264 H            1 GNP201   0.0000
    37 H3'        -21.5711    30.2259     4.9347 H            1 GNP201   0.0000
    38 H6         -22.1362    32.2972     5.7420 H            1 GNP201   0.0000
    39 H2'        -21.7668    30.7490     2.7612 H            1 GNP201   0.0000
    40 H8         -23.1683    32.2948     3.2894 H            1 GNP201   0.0000
    41 H1'        -19.8834    32.8544     2.8062 H            1 GNP201   0.0000
    42 H10        -20.1644    29.4965     1.1368 H            1 GNP201   0.0000
    43 H11        -18.1230    34.1261    -2.6561 H            1 GNP201   0.0000
    44 H12        -18.4390    36.1579     0.1720 H            1 GNP201   0.0000
    45 H13        -18.0267    36.0701    -1.5080 H            1 GNP201   0.0000
@<TRIPOS>BOND
     1    1    2      ar
     2    1    3      ar
     3    1    4      ar
     4    1    5       1
     5    5    6       1
     6    6    7      ar
     7    6    8      ar
     8    6    9       1
     9    9   10       1
    10   10   11      ar
    11   10   12      ar
    12   10   13       1
    13   13   14       1
    14   14   15       1
    15   15   16       1
    16   15   17       1
    17   16   21       1
    18   17   18       1
    19   17   19       1
    20   19   20       1
    21   19   21       1
    22   21   22       1
    23   22   23       1
    24   22   32       1
    25   23   24       2
    26   24   25       1
    27   25   26       1
    28   25   32       2
    29   26   27       2
    30   26   28       1
    31   28   29       1
    32   29   30       1
    33   29   31       2
    34   31   32       1
    35   30   45       1
    36   30   44       1
    37    5   33       1
    38   28   43       1
    39   23   42       1
    40   14   34       1
    41   14   35       1
    42   15   36       1
    43   17   37       1
    44   18   38       1
    45   19   39       1
    46   20   40       1
    47   21   41       1
@<TRIPOS>SUBSTRUCTURE
     1 GNP201      1 GROUP             4 A     GNP     0 **** GNP A 201
