@<TRIPOS>MOLECULE
3uwb_BB2_1_ligand
   61    61     1     0     0
SMALL
NO_CHARGES


@<TRIPOS>ATOM
     1 C5          11.6330    28.9840    11.8680 C.3          1 BB2154   0.0000
     2 C3          11.5350    29.2450    10.4060 C.2          1 BB2154   0.0000
     3 O4          12.1340    30.1820     9.8790 O.2          1 BB2154   0.0000
     4 N1          10.7770    28.4330     9.6560 N.am         1 BB2154   0.0000
     5 O2          10.5610    28.8430     8.3370 O.3          1 BB2154  -1.0000
     6 C6          10.6250    29.8690    12.6180 C.3          1 BB2154   0.0000
     7 C12         10.9560    29.9370    14.0590 C.2          1 BB2154   0.0000
     8 O13         11.2000    28.9180    14.7150 O.2          1 BB2154   0.0000
     9 C7           9.1950    29.3670    12.4440 C.3          1 BB2154   0.0000
    10 C8           8.1520    30.1730    13.2370 C.3          1 BB2154   0.0000
    11 C9           7.5240    31.2360    12.4650 C.3          1 BB2154   0.0000
    12 C10          6.1030    31.7000    12.9090 C.3          1 BB2154   0.0000
    13 C11          6.0550    31.9890    14.3970 C.3          1 BB2154   0.0000
    14 N14         11.0070    31.2290    14.5370 N.am         1 BB2154   0.0000
    15 C15         11.1790    31.4960    15.9710 C.3          1 BB2154   0.0000
    16 C16         12.5310    32.1870    16.1920 C.3          1 BB2154   0.0000
    17 C18         12.6840    32.7180    17.6210 C.3          1 BB2154   0.0000
    18 C17         13.6390    31.1880    15.8250 C.3          1 BB2154   0.0000
    19 C19         10.0240    32.3250    16.4210 C.2          1 BB2154   0.0000
    20 O20          9.5850    33.2080    15.7060 O.2          1 BB2154   0.0000
    21 N21          9.5040    32.1180    17.6660 N.am         1 BB2154   0.0000
    22 C22          8.1590    32.6950    17.9610 C.3          1 BB2154   0.0000
    23 C23          9.6500    30.7810    18.3040 C.3          1 BB2154   0.0000
    24 C24          8.5920    30.7850    19.4220 C.3          1 BB2154   0.0000
    25 C25          7.4880    31.7160    18.9330 C.3          1 BB2154   0.0000
    26 C26          8.3480    34.0670    18.6130 C.3          1 BB2154   0.0000
    27 O27          7.1500    34.9120    18.6950 O.3          1 BB2154   0.0000
    28 H1          12.5588    29.1941    12.1823 H            1 BB2154   0.0000
    29 H2          11.4300    28.0216    12.0487 H            1 BB2154   0.0000
    30 H3          10.3894    27.5852    10.0180 H            1 BB2154   0.0000
    31 H4          10.6797    30.7935    12.2409 H            1 BB2154   0.0000
    32 H5           9.1559    28.4153    12.7486 H            1 BB2154   0.0000
    33 H6           8.9597    29.4162    11.4733 H            1 BB2154   0.0000
    34 H7           8.6050    30.5830    14.0287 H            1 BB2154   0.0000
    35 H8           7.4386    29.5456    13.5490 H            1 BB2154   0.0000
    36 H9           7.4544    30.9192    11.5191 H            1 BB2154   0.0000
    37 H10          8.1265    32.0330    12.5061 H            1 BB2154   0.0000
    38 H11          5.4439    30.9786    12.6963 H            1 BB2154   0.0000
    39 H12          5.8608    32.5310    12.4082 H            1 BB2154   0.0000
    40 H13          5.1334    32.2834    14.6498 H            1 BB2154   0.0000
    41 H14          6.2915    31.1609    14.9052 H            1 BB2154   0.0000
    42 H15          6.7084    32.7133    14.6171 H            1 BB2154   0.0000
    43 H16         10.9258    31.9947    13.8989 H            1 BB2154   0.0000
    44 H17         11.1710    30.6282    16.4678 H            1 BB2154   0.0000
    45 H18         12.5906    32.9626    15.5636 H            1 BB2154   0.0000
    46 H19         13.5763    33.1587    17.7191 H            1 BB2154   0.0000
    47 H20         11.9613    33.3832    17.8086 H            1 BB2154   0.0000
    48 H21         12.6143    31.9587    18.2680 H            1 BB2154   0.0000
    49 H22         14.5324    31.6162    15.9611 H            1 BB2154   0.0000
    50 H23         13.5649    30.3790    16.4080 H            1 BB2154   0.0000
    51 H24         13.5410    30.9186    14.8670 H            1 BB2154   0.0000
    52 H25          7.6220    32.7777    17.1215 H            1 BB2154   0.0000
    53 H26         10.5680    30.6666    18.6837 H            1 BB2154   0.0000
    54 H27          9.4683    30.0509    17.6452 H            1 BB2154   0.0000
    55 H28          8.9859    31.1274    20.2750 H            1 BB2154   0.0000
    56 H29          8.2331    29.8630    19.5671 H            1 BB2154   0.0000
    57 H30          6.7759    31.1939    18.4637 H            1 BB2154   0.0000
    58 H31          7.0855    32.2117    19.7026 H            1 BB2154   0.0000
    59 H32          9.0372    34.5639    18.0856 H            1 BB2154   0.0000
    60 H33          8.6827    33.9198    19.5438 H            1 BB2154   0.0000
    61 H34          7.0827    35.4757    17.8718 H            1 BB2154   0.0000
@<TRIPOS>BOND
     1    1    2       1
     2    1    6       1
     3    2    3       2
     4    2    4      am
     5    4    5       1
     6    6    7       1
     7    6    9       1
     8    7    8       2
     9    7   14      am
    10    9   10       1
    11   10   11       1
    12   11   12       1
    13   12   13       1
    14   14   15       1
    15   15   16       1
    16   15   19       1
    17   16   17       1
    18   16   18       1
    19   19   20       2
    20   19   21      am
    21   21   22       1
    22   21   23       1
    23   22   25       1
    24   22   26       1
    25   23   24       1
    26   24   25       1
    27   26   27       1
    28    1   28       1
    29    1   29       1
    30    4   30       1
    31   27   61       1
    32    6   31       1
    33    9   32       1
    34    9   33       1
    35   10   34       1
    36   10   35       1
    37   11   36       1
    38   11   37       1
    39   12   38       1
    40   12   39       1
    41   13   40       1
    42   13   41       1
    43   13   42       1
    44   14   43       1
    45   15   44       1
    46   16   45       1
    47   17   46       1
    48   17   47       1
    49   17   48       1
    50   18   49       1
    51   18   50       1
    52   18   51       1
    53   22   52       1
    54   23   53       1
    55   23   54       1
    56   24   55       1
    57   24   56       1
    58   25   57       1
    59   25   58       1
    60   26   59       1
    61   26   60       1
@<TRIPOS>SUBSTRUCTURE
     1 BB2154      1 GROUP             4 A     BB2     0 **** BB2 A 154
