@<TRIPOS>MOLECULE
4xiw_AZM_1_ligand
   18    18     1     0     0
SMALL
NO_CHARGES


@<TRIPOS>ATOM
     1 C1         -34.2490   -32.8240    24.3210 C.2          1 AZM402   0.0000
     2 C2         -36.3930   -34.0780    23.4410 C.2          1 AZM402   0.0000
     3 C3         -37.7740   -34.4580    21.5100 C.2          1 AZM402   0.0000
     4 C4         -38.9930   -35.1340    20.9240 C.3          1 AZM402   0.0000
     5 N1         -32.6490   -31.2560    25.7890 N.3          1 AZM402  -1.0000
     6 N2         -35.9660   -34.1800    24.6950 N.2          1 AZM402   0.0000
     7 N3         -34.9380   -33.5820    25.1420 N.2          1 AZM402   0.0000
     8 N4         -37.4860   -34.6650    22.8190 N.am         1 AZM402   0.0000
     9 O1         -31.8000   -33.3190    24.6140 O.2          1 AZM402   0.0000
    10 O2         -32.5480   -31.3070    23.3150 O.2          1 AZM402   0.0000
    11 O3         -37.0970   -33.7360    20.8060 O.2          1 AZM402   0.0000
    12 S1         -32.6360   -32.1940    24.4340 S.o2         1 AZM402   0.0000
    13 S2         -35.1900   -33.0050    22.8260 S.3          1 AZM402   0.0000
    14 H1         -39.0770   -34.8905    19.9577 H            1 AZM402   0.0000
    15 H2         -38.8983   -36.1257    21.0108 H            1 AZM402   0.0000
    16 H3         -39.8099   -34.8328    21.4159 H            1 AZM402   0.0000
    17 H4         -32.3969   -31.8115    26.5814 H            1 AZM402   0.0000
    18 H5         -38.0826   -35.2620    23.3553 H            1 AZM402   0.0000
@<TRIPOS>BOND
     1    1    7       2
     2    1   12       1
     3    1   13       1
     4    2    6       2
     5    2    8       1
     6    2   13       1
     7    3    4       1
     8    3    8      am
     9    3   11       2
    10    5   12       1
    11    6    7       1
    12    9   12       2
    13   10   12       2
    14    4   14       1
    15    4   15       1
    16    4   16       1
    17    8   18       1
    18    5   17       1
@<TRIPOS>SUBSTRUCTURE
     1 AZM402      1 GROUP             4 A     AZM     0 **** AZM A 402
