@<TRIPOS>MOLECULE
3cjt_SAH_1_ligand
   46    48     1     0     0
SMALL
NO_CHARGES


@<TRIPOS>ATOM
     1 N          -10.4040    -2.7570    37.1320 N.4          1 SAH258   1.0000
     2 CA         -10.2490    -2.1620    35.7440 C.3          1 SAH258   0.0000
     3 CB         -11.2050    -2.7510    34.6860 C.3          1 SAH258   0.0000
     4 CG         -12.7020    -2.5510    35.0020 C.3          1 SAH258   0.0000
     5 SD         -13.8150    -2.8400    33.6030 S.3          1 SAH258   0.0000
     6 C          -10.4010    -0.6570    35.8650 C.2          1 SAH258   0.0000
     7 O          -10.5890    -0.1540    36.9650 O.co2        1 SAH258   0.0000
     8 OXT        -10.3070     0.0850    34.8930 O.co2        1 SAH258  -1.0000
     9 C5'        -14.7420    -4.1260    34.4690 C.3          1 SAH258   0.0000
    10 C4'        -14.0980    -5.4930    34.3870 C.3          1 SAH258   0.0000
    11 O4'        -14.8720    -6.3360    35.2220 O.3          1 SAH258   0.0000
    12 C3'        -14.1290    -6.1140    32.9960 C.3          1 SAH258   0.0000
    13 O3'        -12.8380    -6.6010    32.6050 O.3          1 SAH258   0.0000
    14 C2'        -15.1190    -7.2760    33.1410 C.3          1 SAH258   0.0000
    15 O2'        -14.7630    -8.3750    32.3390 O.3          1 SAH258   0.0000
    16 C1'        -15.0530    -7.5970    34.6150 C.3          1 SAH258   0.0000
    17 N9         -16.2890    -8.1650    35.1560 N.pl3        1 SAH258   0.0000
    18 C8         -17.5760    -7.8410    34.7910 C.2          1 SAH258   0.0000
    19 N7         -18.4360    -8.5570    35.5120 N.2          1 SAH258   0.0000
    20 C5         -17.7330    -9.3370    36.3650 C.ar         1 SAH258   0.0000
    21 C6         -18.0960   -10.2700    37.3490 C.ar         1 SAH258   0.0000
    22 N6         -19.3630   -10.5900    37.6340 N.pl3        1 SAH258   0.0000
    23 N1         -17.0760   -10.8880    38.0670 N.ar         1 SAH258   0.0000
    24 C2         -15.7430   -10.6250    37.8300 C.ar         1 SAH258   0.0000
    25 N3         -15.4100    -9.7240    36.8610 N.ar         1 SAH258   0.0000
    26 C4         -16.3720    -9.0920    36.1470 C.ar         1 SAH258   0.0000
    27 H1          -9.5410    -3.1769    37.4130 H            1 SAH258   0.0000
    28 H2         -10.6494    -2.0349    37.7787 H            1 SAH258   0.0000
    29 HA          -9.3142    -2.3464    35.4405 H            1 SAH258   0.0000
    30 HB1        -11.0281    -3.7327    34.6159 H            1 SAH258   0.0000
    31 HB2        -11.0089    -2.3135    33.8084 H            1 SAH258   0.0000
    32 HG1        -12.8316    -1.6098    35.3140 H            1 SAH258   0.0000
    33 HG2        -12.9528    -3.1828    35.7354 H            1 SAH258   0.0000
    34 H5'1       -15.6561    -4.1821    34.0675 H            1 SAH258   0.0000
    35 H5'2       -14.8163    -3.8684    35.4324 H            1 SAH258   0.0000
    36 H4'        -13.1568    -5.4492    34.7220 H            1 SAH258   0.0000
    37 H3'        -14.4670    -5.4514    32.3276 H            1 SAH258   0.0000
    38 H12        -12.5339    -7.2979    33.2545 H            1 SAH258   0.0000
    39 H2'        -16.0399    -6.9676    32.9028 H            1 SAH258   0.0000
    40 H14        -14.1640    -8.9856    32.8571 H            1 SAH258   0.0000
    41 H1'        -14.2762    -8.1958    34.8100 H            1 SAH258   0.0000
    42 H16        -17.8264    -7.1711    34.0920 H            1 SAH258   0.0000
    43 H17        -19.5605   -11.2630    38.3468 H            1 SAH258   0.0000
    44 H18        -20.1128   -10.1562    37.1343 H            1 SAH258   0.0000
    45 H19        -15.0320   -11.0873    38.3599 H            1 SAH258   0.0000
    46 H20        -11.1237    -3.4512    37.1186 H            1 SAH258   0.0000
@<TRIPOS>BOND
     1    1    2       1
     2    2    3       1
     3    2    6       1
     4    3    4       1
     5    4    5       1
     6    5    9       1
     7    6    7      ar
     8    6    8      ar
     9    9   10       1
    10   10   11       1
    11   10   12       1
    12   11   16       1
    13   12   13       1
    14   12   14       1
    15   14   15       1
    16   14   16       1
    17   16   17       1
    18   17   18       1
    19   17   26       1
    20   18   19       2
    21   19   20       1
    22   20   21      ar
    23   20   26      ar
    24   21   22       1
    25   21   23      ar
    26   23   24      ar
    27   24   25      ar
    28   25   26      ar
    29    1   27       1
    30    1   28       1
    31    2   29       1
    32    3   30       1
    33    3   31       1
    34    4   32       1
    35    4   33       1
    36    1   46       1
    37    9   34       1
    38    9   35       1
    39   10   36       1
    40   12   37       1
    41   13   38       1
    42   14   39       1
    43   15   40       1
    44   16   41       1
    45   18   42       1
    46   22   43       1
    47   22   44       1
    48   24   45       1
@<TRIPOS>SUBSTRUCTURE
     1 SAH258      1 GROUP             4 A     SAH     0 **** SAH A 258
