@<TRIPOS>MOLECULE
5cx6_CDP_1_ligand
   37    38     1     0     0
SMALL
NO_CHARGES


@<TRIPOS>ATOM
     1 O3B          5.7440    37.8330    12.9750 O.co2        1 CDP721   0.0000
     2 PB           6.8140    36.8980    13.4940 P.3          1 CDP721   0.0000
     3 O1B          7.7210    36.4890    12.3550 O.co2        1 CDP721  -1.0000
     4 O2B          6.1660    35.6680    14.0900 O.co2        1 CDP721  -1.0000
     5 O3A          7.6810    37.6500    14.6240 O.3          1 CDP721   0.0000
     6 PA           7.4510    37.9580    16.1880 P.3          1 CDP721   0.0000
     7 O1A          6.5850    39.1510    16.3350 O.co2        1 CDP721   0.0000
     8 O2A          8.7590    38.2120    16.8400 O.co2        1 CDP721  -1.0000
     9 O5'          6.7420    36.6910    16.8850 O.3          1 CDP721   0.0000
    10 C5'          7.4400    35.4850    17.2010 C.3          1 CDP721   0.0000
    11 C4'          7.8130    35.4850    18.6840 C.3          1 CDP721   0.0000
    12 O4'          7.2020    34.3630    19.3430 O.3          1 CDP721   0.0000
    13 C3'          9.3400    35.3330    18.8400 C.3          1 CDP721   0.0000
    14 O3'          9.8870    36.4620    19.5230 O.3          1 CDP721   0.0000
    15 C2'          9.5070    34.0500    19.6920 C.3          1 CDP721   0.0000
    16 O2'         10.5380    34.2160    20.6670 O.3          1 CDP721   0.0000
    17 C1'          8.1190    33.9260    20.3690 C.3          1 CDP721   0.0000
    18 N1           7.8500    32.5360    20.7440 N.pl3        1 CDP721   0.0000
    19 C2           8.8570    31.6460    20.7810 C.2          1 CDP721   0.0000
    20 O2           9.9880    32.0070    20.5000 O.2          1 CDP721   0.0000
    21 N3           8.6420    30.3750    21.1190 N.2          1 CDP721   0.0000
    22 C4           7.4220    29.9560    21.4290 C.2          1 CDP721   0.0000
    23 N4           7.2110    28.6420    21.7780 N.pl3        1 CDP721   0.0000
    24 C5           6.3440    30.8640    21.4000 C.2          1 CDP721   0.0000
    25 C6           6.5810    32.1530    21.0590 C.2          1 CDP721   0.0000
    26 H5'1         8.2713    35.4265    16.6483 H            1 CDP721   0.0000
    27 H5'2         6.8533    34.6993    17.0049 H            1 CDP721   0.0000
    28 H4'          7.5103    36.3370    19.1112 H            1 CDP721   0.0000
    29 H3'          9.7742    35.2195    17.9464 H            1 CDP721   0.0000
    30 H5           9.2046    36.8335    20.1526 H            1 CDP721   0.0000
    31 H2'          9.6914    33.2578    19.1102 H            1 CDP721   0.0000
    32 H7          10.6274    33.3770    21.2037 H            1 CDP721   0.0000
    33 H1'          8.0629    34.5235    21.1689 H            1 CDP721   0.0000
    34 H9           6.2906    28.3282    22.0113 H            1 CDP721   0.0000
    35 H10          7.9780    28.0007    21.7984 H            1 CDP721   0.0000
    36 H11          5.4186    30.5609    21.6277 H            1 CDP721   0.0000
    37 H12          5.8329    32.8163    21.0386 H            1 CDP721   0.0000
@<TRIPOS>BOND
     1    1    2      ar
     2    2    3      ar
     3    2    4      ar
     4    2    5       1
     5    5    6       1
     6    6    7      ar
     7    6    8      ar
     8    6    9       1
     9    9   10       1
    10   10   11       1
    11   11   12       1
    12   11   13       1
    13   12   17       1
    14   13   14       1
    15   13   15       1
    16   15   16       1
    17   15   17       1
    18   17   18       1
    19   18   19       1
    20   18   25       1
    21   19   20       2
    22   19   21       1
    23   21   22       2
    24   22   23       1
    25   22   24       1
    26   24   25       2
    27   25   37       1
    28   24   36       1
    29   23   35       1
    30   10   26       1
    31   10   27       1
    32   11   28       1
    33   13   29       1
    34   14   30       1
    35   15   31       1
    36   16   32       1
    37   17   33       1
    38   23   34       1
@<TRIPOS>SUBSTRUCTURE
     1 CDP721      1 GROUP             4 A     CDP     0 **** CDP A 721
