@<TRIPOS>MOLECULE
1qrp_HH0_1_ligand
  111   111     1     0     0
SMALL
NO_CHARGES


@<TRIPOS>ATOM
     1 CA1          4.3490    20.8560     1.9560 C.3          1 HH0327   0.0000
     2 CB1          3.8390    20.5070     0.5580 C.3          1 HH0327   0.0000
     3 CZ2          4.9460    20.6970    -0.4890 C.3          1 HH0327   0.0000
     4 CW1          2.6200    21.3690     0.2280 C.3          1 HH0327   0.0000
     5 C1           5.1670    19.7470     2.6200 C.2          1 HH0327   0.0000
     6 O1           4.6590    18.6520     2.8650 O.2          1 HH0327   0.0000
     7 N1           6.4590    20.0240     2.8190 N.am         1 HH0327   0.0000
     8 CA2          7.2540    19.3490     3.8610 C.3          1 HH0327   0.0000
     9 C2           6.7380    19.7100     5.2760 C.2          1 HH0327   0.0000
    10 O2           6.3480    20.8350     5.5820 O.2          1 HH0327   0.0000
    11 CB2          8.7890    19.5630     3.8110 C.3          1 HH0327   0.0000
    12 CG1          9.3430    19.0480     2.4940 C.3          1 HH0327   0.0000
    13 CG2          9.2700    21.0010     4.0450 C.3          1 HH0327   0.0000
    14 N3           6.5810    18.6560     6.0690 N.am         1 HH0327   0.0000
    15 CA3          6.3010    18.7870     7.5050 C.3          1 HH0327   0.0000
    16 C3           7.3670    17.9890     8.2810 C.2          1 HH0327   0.0000
    17 O3           7.2330    16.7900     8.4790 O.2          1 HH0327   0.0000
    18 CB3          4.8780    18.3220     7.8410 C.3          1 HH0327   0.0000
    19 CO2          3.8230    19.0450     6.9820 C.3          1 HH0327   0.0000
    20 CP1          4.5840    18.6040     9.3200 C.3          1 HH0327   0.0000
    21 C5           8.2160    16.6490    13.2200 C.2          1 HH0327   0.0000
    22 N5           8.5160    18.6450     8.4750 N.am         1 HH0327   0.0000
    23 O5           7.6610    15.7680    12.5840 O.2          1 HH0327   0.0000
    24 P5           9.5190    18.8320    10.8860 P.3          1 HH0327   0.0000
    25 CZ           4.4580    17.6510    16.8210 C.ar         1 HH0327   0.0000
    26 O11          9.5290    20.2870    10.6870 O.co2        1 HH0327   0.0000
    27 O21         10.6880    18.2770    11.5980 O.co2        1 HH0327  -1.0000
    28 CA4          9.6420    18.0760     9.2250 C.3          1 HH0327   0.0000
    29 CA5          7.8160    18.1510    12.9230 C.3          1 HH0327   0.0000
    30 OA5          8.0890    18.4250    11.5400 O.3          1 HH0327   0.0000
    31 CB4         11.0060    18.2930     8.5490 C.3          1 HH0327   0.0000
    32 CB5          6.3390    18.6840    13.0730 C.3          1 HH0327   0.0000
    33 CE2          4.4320    16.7270    15.7350 C.ar         1 HH0327   0.0000
    34 CG4         11.0160    17.7190     7.1180 C.3          1 HH0327   0.0000
    35 CG5          5.7690    18.2820    14.4260 C.ar         1 HH0327   0.0000
    36 CJ2          5.0800    17.0450    14.5410 C.ar         1 HH0327   0.0000
    37 CN1         12.2460    18.2380     6.3860 C.3          1 HH0327   0.0000
    38 CM2         11.0100    16.1870     7.1000 C.3          1 HH0327   0.0000
    39 CU1          5.8170    19.1930    15.5080 C.ar         1 HH0327   0.0000
    40 CV1          5.1390    18.8780    16.6990 C.ar         1 HH0327   0.0000
    41 N6           9.0280    16.4550    14.2490 N.am         1 HH0327   0.0000
    42 CA6          9.2490    15.0870    14.7860 C.3          1 HH0327   0.0000
    43 C6           8.3040    14.7500    15.9110 C.2          1 HH0327   0.0000
    44 O6           8.2080    15.4990    16.8610 O.2          1 HH0327   0.0000
    45 CB6         10.6700    14.9180    15.3040 C.3          1 HH0327   0.0000
    46 N7           7.6010    13.6230    15.7470 N.am         1 HH0327   0.0000
    47 CA7          6.6920    13.0280    16.7470 C.3          1 HH0327   0.0000
    48 C7           7.3520    12.9430    18.1390 C.2          1 HH0327   0.0000
    49 O7           8.3030    12.1820    18.3420 O.2          1 HH0327   0.0000
    50 CB7          6.3040    11.6210    16.2750 C.3          1 HH0327   0.0000
    51 O77          7.2980    13.4590    19.4960 O.3          1 HH0327   0.0000
    52 C99          8.4280    13.2570    20.3890 C.3          1 HH0327   0.0000
    53 HA11         3.5598    21.0545     2.5372 H            1 HH0327   0.0000
    54 HA12         4.9244    21.6708     1.8855 H            1 HH0327   0.0000
    55 HB1          3.5592    19.5469     0.5530 H            1 HH0327   0.0000
    56 HZ21         4.5919    20.4637    -1.3946 H            1 HH0327   0.0000
    57 HZ22         5.2487    21.6501    -0.4848 H            1 HH0327   0.0000
    58 HZ23         5.7183    20.1010    -0.2694 H            1 HH0327   0.0000
    59 HW11         2.2874    21.1397    -0.6868 H            1 HH0327   0.0000
    60 HW12         1.8982    21.1961     0.8982 H            1 HH0327   0.0000
    61 HW13         2.8772    22.3349     0.2568 H            1 HH0327   0.0000
    62 H10          6.9009    20.7113     2.2425 H            1 HH0327   0.0000
    63 HA2          7.1002    18.3678     3.7445 H            1 HH0327   0.0000
    64 HB2          9.1865    19.0001     4.5356 H            1 HH0327   0.0000
    65 HG11        10.3326    19.1899     2.4704 H            1 HH0327   0.0000
    66 HG12         9.1441    18.0718     2.4077 H            1 HH0327   0.0000
    67 HG13         8.9171    19.5432     1.7368 H            1 HH0327   0.0000
    68 HG21        10.2682    21.0313     3.9927 H            1 HH0327   0.0000
    69 HG22         8.8812    21.6005     3.3454 H            1 HH0327   0.0000
    70 HG23         8.9742    21.3084     4.9494 H            1 HH0327   0.0000
    71 H19          6.6561    17.7403     5.6742 H            1 HH0327   0.0000
    72 HA3          6.3848    19.7514     7.7557 H            1 HH0327   0.0000
    73 HB3          4.8107    17.3376     7.6781 H            1 HH0327   0.0000
    74 HO21         2.9110    18.7171     7.2283 H            1 HH0327   0.0000
    75 HO22         3.8784    20.0300     7.1452 H            1 HH0327   0.0000
    76 HO23         3.9948    18.8571     6.0150 H            1 HH0327   0.0000
    77 HP11         3.6566    18.3010     9.5392 H            1 HH0327   0.0000
    78 HP12         5.2398    18.1094     9.8904 H            1 HH0327   0.0000
    79 HP13         4.6640    19.5854     9.4945 H            1 HH0327   0.0000
    80 H28          8.6123    19.5638     8.0922 H            1 HH0327   0.0000
    81 HZ           3.9894    17.4262    17.6753 H            1 HH0327   0.0000
    82 HA4          9.4913    17.0917     9.3171 H            1 HH0327   0.0000
    83 HA5          8.4094    18.7388    13.4730 H            1 HH0327   0.0000
    84 HB41        11.7138    17.8369     9.0885 H            1 HH0327   0.0000
    85 HB42        11.1978    19.2736     8.5086 H            1 HH0327   0.0000
    86 HB51         5.7721    18.2946    12.3470 H            1 HH0327   0.0000
    87 HB52         6.3386    19.6812    12.9976 H            1 HH0327   0.0000
    88 HE2          3.9515    15.8551    15.8289 H            1 HH0327   0.0000
    89 HG4         10.2008    18.0452     6.6395 H            1 HH0327   0.0000
    90 HJ2          5.0596    16.4066    13.7715 H            1 HH0327   0.0000
    91 HN11        12.2604    17.8703     5.4562 H            1 HH0327   0.0000
    92 HN12        12.2151    19.2368     6.3490 H            1 HH0327   0.0000
    93 HN13        13.0703    17.9478     6.8720 H            1 HH0327   0.0000
    94 HM21        11.0168    15.8647     6.1534 H            1 HH0327   0.0000
    95 HM22        11.8211    15.8449     7.5745 H            1 HH0327   0.0000
    96 HM23        10.1882    15.8515     7.5604 H            1 HH0327   0.0000
    97 HU1          6.3265    20.0496    15.4266 H            1 HH0327   0.0000
    98 HV1          5.1403    19.5261    17.4606 H            1 HH0327   0.0000
    99 H47          9.4951    17.2342    14.6669 H            1 HH0327   0.0000
   100 HA6          9.1037    14.4308    14.0455 H            1 HH0327   0.0000
   101 HB61        10.7877    13.9901    15.6578 H            1 HH0327   0.0000
   102 HB62        11.3175    15.0750    14.5583 H            1 HH0327   0.0000
   103 HB63        10.8385    15.5778    16.0363 H            1 HH0327   0.0000
   104 H52          7.6995    13.1441    14.8747 H            1 HH0327   0.0000
   105 HA7          5.8667    13.5890    16.8115 H            1 HH0327   0.0000
   106 HB71         5.6874    11.2037    16.9426 H            1 HH0327   0.0000
   107 HB72         5.8443    11.6816    15.3890 H            1 HH0327   0.0000
   108 HB73         7.1273    11.0605    16.1857 H            1 HH0327   0.0000
   109 H57          8.2290    13.6708    21.2773 H            1 HH0327   0.0000
   110 H58          8.5891    12.2771    20.5064 H            1 HH0327   0.0000
   111 H59          9.2429    13.6842    19.9973 H            1 HH0327   0.0000
@<TRIPOS>BOND
     1    1    2       1
     2    1    5       1
     3    2    3       1
     4    2    4       1
     5    5    6       2
     6    5    7      am
     7    7    8       1
     8    8    9       1
     9    8   11       1
    10    9   10       2
    11    9   14      am
    12   11   12       1
    13   11   13       1
    14   14   15       1
    15   15   16       1
    16   15   18       1
    17   16   17       2
    18   16   22      am
    19   18   19       1
    20   18   20       1
    21   21   23       2
    22   21   29       1
    23   21   41      am
    24   22   28       1
    25   24   26      ar
    26   24   27      ar
    27   24   28       1
    28   24   30       1
    29   25   33      ar
    30   25   40      ar
    31   28   31       1
    32   29   30       1
    33   29   32       1
    34   31   34       1
    35   32   35       1
    36   33   36      ar
    37   34   37       1
    38   34   38       1
    39   35   36      ar
    40   35   39      ar
    41   39   40      ar
    42   41   42       1
    43   42   43       1
    44   42   45       1
    45   43   44       2
    46   43   46      am
    47   46   47       1
    48   47   48       1
    49   47   50       1
    50   48   49       2
    51   48   51       1
    52   51   52       1
    53    1   53       1
    54    1   54       1
    55    2   55       1
    56    3   56       1
    57    3   57       1
    58    3   58       1
    59    4   59       1
    60    4   60       1
    61    4   61       1
    62    7   62       1
    63    8   63       1
    64   11   64       1
    65   12   65       1
    66   12   66       1
    67   12   67       1
    68   13   68       1
    69   13   69       1
    70   13   70       1
    71   14   71       1
    72   15   72       1
    73   18   73       1
    74   19   74       1
    75   19   75       1
    76   19   76       1
    77   20   77       1
    78   20   78       1
    79   20   79       1
    80   22   80       1
    81   25   81       1
    82   52  111       1
    83   28   82       1
    84   29   83       1
    85   31   84       1
    86   31   85       1
    87   32   86       1
    88   32   87       1
    89   33   88       1
    90   34   89       1
    91   36   90       1
    92   37   91       1
    93   37   92       1
    94   37   93       1
    95   38   94       1
    96   38   95       1
    97   38   96       1
    98   39   97       1
    99   40   98       1
   100   41   99       1
   101   42  100       1
   102   45  101       1
   103   45  102       1
   104   45  103       1
   105   46  104       1
   106   47  105       1
   107   50  106       1
   108   50  107       1
   109   50  108       1
   110   52  109       1
   111   52  110       1
@<TRIPOS>SUBSTRUCTURE
     1 HH0327      1 GROUP             4 E     HH0     0 **** HH0 E 327
