@<TRIPOS>MOLECULE
1rp0_AHZ_1_ligand
   57    60     1     0     0
SMALL
NO_CHARGES


@<TRIPOS>ATOM
     1 O2'         56.2990    25.0380    38.2040 O.3          1 AHZ600   0.0000
     2 C2'         55.7780    23.7680    37.7820 C.3          1 AHZ600   0.0000
     3 C3'         54.5050    23.8630    36.9160 C.3          1 AHZ600   0.0000
     4 O3'         53.6870    25.0130    37.1430 O.3          1 AHZ600   0.0000
     5 C1'         55.2170    22.9920    38.9580 C.3          1 AHZ600   0.0000
     6 N9          56.2000    22.2600    39.7560 N.pl3        1 AHZ600   0.0000
     7 C8          57.0680    21.3510    39.2870 C.2          1 AHZ600   0.0000
     8 N7          57.7940    20.7910    40.2760 N.2          1 AHZ600   0.0000
     9 C5          57.3660    21.3540    41.4220 C.ar         1 AHZ600   0.0000
    10 C6          57.6920    21.2500    42.8520 C.ar         1 AHZ600   0.0000
    11 N1          57.0030    22.0030    43.7110 N.ar         1 AHZ600   0.0000
    12 C2          56.0400    22.8470    43.3100 C.ar         1 AHZ600   0.0000
    13 N6          58.6360    20.4250    43.2510 N.pl3        1 AHZ600   0.0000
    14 C4          56.3310    22.2920    41.0860 C.ar         1 AHZ600   0.0000
    15 N3          55.6360    23.0830    42.0530 N.ar         1 AHZ600   0.0000
    16 O4'         54.4330    21.9520    38.3510 O.3          1 AHZ600   0.0000
    17 C4'         53.7680    22.5550    37.2140 C.3          1 AHZ600   0.0000
    18 C5'         53.8740    21.5850    36.0490 C.3          1 AHZ600   0.0000
    19 O5'         53.0970    22.1340    34.9820 O.3          1 AHZ600   0.0000
    20 PA          53.3210    21.6600    33.4590 P.3          1 AHZ600   0.0000
    21 O2A         52.3240    22.4580    32.6710 O.co2        1 AHZ600   0.0000
    22 O1A         54.7800    21.6490    33.1480 O.co2        1 AHZ600  -1.0000
    23 O3A         52.8950    20.0840    33.4510 O.3          1 AHZ600   0.0000
    24 PB          51.4490    19.4060    33.1620 P.3          1 AHZ600   0.0000
    25 O1B         50.3140    19.9810    33.9510 O.co2        1 AHZ600   0.0000
    26 O2B         51.8440    17.9490    33.3620 O.co2        1 AHZ600  -1.0000
    27 O3B         51.2580    19.7590    31.5940 O.3          1 AHZ600   0.0000
    28 C7T         52.2480    19.3970    30.6040 C.3          1 AHZ600   0.0000
    29 C6T         52.0090    20.1610    29.2780 C.3          1 AHZ600   0.0000
    30 C5T         53.2100    19.8650    28.3900 C.2          1 AHZ600   0.0000
    31 S1T         53.3120    18.7270    27.1590 S.3          1 AHZ600   0.0000
    32 C2T         54.9070    19.1060    26.9230 C.2          1 AHZ600   0.0000
    33 C1R         55.8620    18.5660    25.9520 C.2          1 AHZ600   0.0000
    34 O1R         56.9340    19.2390    25.9330 O.co2        1 AHZ600   0.0000
    35 O2R         55.5660    17.5280    25.2990 O.co2        1 AHZ600  -1.0000
    36 N3T         55.3370    20.0170    27.6830 N.2          1 AHZ600   0.0000
    37 C4T         54.4040    20.4510    28.5400 C.2          1 AHZ600   0.0000
    38 C1M         54.7110    21.5500    29.5360 C.3          1 AHZ600   0.0000
    39 H2'         55.6097    25.5172    38.7473 H            1 AHZ600   0.0000
    40 H2          56.4835    23.2361    37.3136 H            1 AHZ600   0.0000
    41 H3'         54.7785    23.8572    35.9541 H            1 AHZ600   0.0000
    42 H4          53.3804    25.0213    38.0948 H            1 AHZ600   0.0000
    43 H1'         54.6496    23.5778    39.5367 H            1 AHZ600   0.0000
    44 H6          57.1651    21.1167    38.3197 H            1 AHZ600   0.0000
    45 H7          55.5703    23.3579    44.0299 H            1 AHZ600   0.0000
    46 H8          58.8590    20.3530    44.2231 H            1 AHZ600   0.0000
    47 H9          59.1305    19.8699    42.5821 H            1 AHZ600   0.0000
    48 H4'         52.8085    22.7374    37.4286 H            1 AHZ600   0.0000
    49 H5'1        53.5135    20.6902    36.3123 H            1 AHZ600   0.0000
    50 H5'2        54.8284    21.4898    35.7661 H            1 AHZ600   0.0000
    51 H7T1        52.1926    18.4138    30.4299 H            1 AHZ600   0.0000
    52 H7T2        53.1576    19.6231    30.9527 H            1 AHZ600   0.0000
    53 H6T1        51.9411    21.1434    29.4521 H            1 AHZ600   0.0000
    54 H6T2        51.1684    19.8411    28.8410 H            1 AHZ600   0.0000
    55 H1M1        55.6707    21.8179    29.4515 H            1 AHZ600   0.0000
    56 H1M2        54.1268    22.3402    29.3510 H            1 AHZ600   0.0000
    57 H1M3        54.5381    21.2175    30.4631 H            1 AHZ600   0.0000
@<TRIPOS>BOND
     1    1    2       1
     2    2    3       1
     3    2    5       1
     4    3    4       1
     5    3   17       1
     6    5    6       1
     7    5   16       1
     8    6    7       1
     9    6   14       1
    10    7    8       2
    11    8    9       1
    12    9   10      ar
    13    9   14      ar
    14   10   11      ar
    15   10   13       1
    16   11   12      ar
    17   12   15      ar
    18   14   15      ar
    19   16   17       1
    20   17   18       1
    21   18   19       1
    22   19   20       1
    23   20   21      ar
    24   20   22      ar
    25   20   23       1
    26   23   24       1
    27   24   25      ar
    28   24   26      ar
    29   24   27       1
    30   27   28       1
    31   28   29       1
    32   29   30       1
    33   30   31       1
    34   30   37       2
    35   31   32       1
    36   32   33       1
    37   32   36       2
    38   33   34      ar
    39   33   35      ar
    40   36   37       1
    41   37   38       1
    42    1   39       1
    43    2   40       1
    44    3   41       1
    45    4   42       1
    46    5   43       1
    47    7   44       1
    48   12   45       1
    49   13   46       1
    50   13   47       1
    51   17   48       1
    52   18   49       1
    53   18   50       1
    54   38   57       1
    55   38   56       1
    56   28   51       1
    57   28   52       1
    58   29   53       1
    59   29   54       1
    60   38   55       1
@<TRIPOS>SUBSTRUCTURE
     1 AHZ600      1 GROUP             4 A     AHZ     0 **** AHZ A 600
