@<TRIPOS>MOLECULE
5dmh_ADP_1_ligand
   39    41     1     0     0
SMALL
NO_CHARGES


@<TRIPOS>ATOM
     1 PB          23.7540    75.0520   121.4000 P.3          1 ADP501   0.0000
     2 O1B         22.2670    75.3870   121.4470 O.co2        1 ADP501   0.0000
     3 O2B         24.0430    73.7240   122.0790 O.co2        1 ADP501  -1.0000
     4 O3B         24.6500    76.1940   121.8560 O.co2        1 ADP501  -1.0000
     5 PA          24.3230    75.6540   118.5920 P.3          1 ADP501   0.0000
     6 O1A         23.6950    75.0260   117.4110 O.co2        1 ADP501   0.0000
     7 O2A         24.0240    77.0590   118.9900 O.co2        1 ADP501  -1.0000
     8 O3A         24.0800    74.6540   119.8540 O.3          1 ADP501   0.0000
     9 O5'         25.9220    75.6490   118.4600 O.3          1 ADP501   0.0000
    10 C5'         26.6510    74.4580   118.1990 C.3          1 ADP501   0.0000
    11 C4'         27.7740    74.7770   117.2170 C.3          1 ADP501   0.0000
    12 O4'         28.7140    73.7150   117.2130 O.3          1 ADP501   0.0000
    13 C3'         27.2560    74.9150   115.7910 C.3          1 ADP501   0.0000
    14 O3'         27.9870    75.9250   115.0690 O.3          1 ADP501   0.0000
    15 C2'         27.5270    73.5560   115.2270 C.3          1 ADP501   0.0000
    16 O2'         27.5150    73.5360   113.8150 O.3          1 ADP501   0.0000
    17 C1'         28.8540    73.2470   115.8770 C.3          1 ADP501   0.0000
    18 N9          29.1080    71.8110   115.8420 N.pl3        1 ADP501   0.0000
    19 C8          28.2170    70.8160   116.0720 C.2          1 ADP501   0.0000
    20 N7          28.7920    69.6140   115.9190 N.2          1 ADP501   0.0000
    21 C5          30.0810    69.8520   115.5790 C.ar         1 ADP501   0.0000
    22 C6          31.2320    69.0130   115.2470 C.ar         1 ADP501   0.0000
    23 N6          31.0710    67.6750   115.3020 N.pl3        1 ADP501   0.0000
    24 N1          32.3990    69.6220   114.9600 N.ar         1 ADP501   0.0000
    25 C2          32.5290    70.9650   114.9420 C.ar         1 ADP501   0.0000
    26 N3          31.5130    71.8170   115.2130 N.ar         1 ADP501   0.0000
    27 C4          30.2850    71.3010   115.5200 C.ar         1 ADP501   0.0000
    28 H5'1        26.0422    73.7710   117.8023 H            1 ADP501   0.0000
    29 H5'2        27.0389    74.1073   119.0514 H            1 ADP501   0.0000
    30 H4'         28.2279    75.6247   117.4916 H            1 ADP501   0.0000
    31 H3'         26.2759    75.1133   115.7861 H            1 ADP501   0.0000
    32 H5          27.3574    76.6417   114.7690 H            1 ADP501   0.0000
    33 H2'         26.8384    72.9166   115.5691 H            1 ADP501   0.0000
    34 H7          27.8106    74.4255   113.4665 H            1 ADP501   0.0000
    35 H1'         29.5899    73.7400   115.4129 H            1 ADP501   0.0000
    36 H9          27.2594    70.9589   116.3222 H            1 ADP501   0.0000
    37 H10         31.8360    67.0699   115.0816 H            1 ADP501   0.0000
    38 H11         30.1866    67.2881   115.5632 H            1 ADP501   0.0000
    39 H12         33.4234    71.3512   114.7165 H            1 ADP501   0.0000
@<TRIPOS>BOND
     1    1    2      ar
     2    1    3      ar
     3    1    4      ar
     4    1    8       1
     5    5    6      ar
     6    5    7      ar
     7    5    8       1
     8    5    9       1
     9    9   10       1
    10   10   11       1
    11   11   12       1
    12   11   13       1
    13   12   17       1
    14   13   14       1
    15   13   15       1
    16   15   16       1
    17   15   17       1
    18   17   18       1
    19   18   19       1
    20   18   27       1
    21   19   20       2
    22   20   21       1
    23   21   22      ar
    24   21   27      ar
    25   22   23       1
    26   22   24      ar
    27   24   25      ar
    28   25   26      ar
    29   26   27      ar
    30   25   39       1
    31   23   38       1
    32   23   37       1
    33   10   28       1
    34   10   29       1
    35   11   30       1
    36   13   31       1
    37   14   32       1
    38   15   33       1
    39   16   34       1
    40   17   35       1
    41   19   36       1
@<TRIPOS>SUBSTRUCTURE
     1 ADP501      1 GROUP             4 A     ADP     0 **** ADP A 501
