@<TRIPOS>MOLECULE
4rtb_SAM_1_ligand
   49    51     1     0     0
SMALL
NO_CHARGES


@<TRIPOS>ATOM
     1 N           45.1880     6.1080    24.6500 N.3          1 SAM501   0.0000
     2 CA          43.8680     6.3530    24.0690 C.3          1 SAM501   0.0000
     3 C           43.1490     5.0820    23.6310 C.2          1 SAM501   0.0000
     4 O           43.6790     3.9780    23.6950 O.co2        1 SAM501   0.0000
     5 OXT         42.0010     5.1400    23.1970 O.co2        1 SAM501  -1.0000
     6 CB          43.9510     7.3000    22.8730 C.3          1 SAM501   0.0000
     7 CG          45.3020     7.4140    22.1680 C.3          1 SAM501   0.0000
     8 SD          45.9280     5.9650    21.2820 S.3          1 SAM501   1.0000
     9 CE          47.6420     6.4830    21.1610 C.3          1 SAM501   0.0000
    10 C5'         45.5350     6.3850    19.5700 C.3          1 SAM501   0.0000
    11 C4'         45.1390     5.2050    18.6860 C.3          1 SAM501   0.0000
    12 O4'         46.2360     4.6170    18.0060 O.3          1 SAM501   0.0000
    13 C3'         44.5080     4.0750    19.4830 C.3          1 SAM501   0.0000
    14 O3'         43.1220     4.2770    19.6120 O.3          1 SAM501   0.0000
    15 C2'         44.8190     2.8460    18.6550 C.3          1 SAM501   0.0000
    16 O2'         43.6700     2.4110    17.9720 O.3          1 SAM501   0.0000
    17 C1'         45.8440     3.3080    17.6340 C.3          1 SAM501   0.0000
    18 N9          46.9710     2.3650    17.6450 N.pl3        1 SAM501   0.0000
    19 C8          47.6580     1.9360    18.7470 C.2          1 SAM501   0.0000
    20 N7          48.6130     1.0680    18.3490 N.2          1 SAM501   0.0000
    21 C5          48.5350     0.9280    17.0080 C.ar         1 SAM501   0.0000
    22 C6          49.2640     0.1700    16.1040 C.ar         1 SAM501   0.0000
    23 N6          50.2540    -0.6080    16.5310 N.pl3        1 SAM501   0.0000
    24 N1          48.9540     0.2270    14.7620 N.ar         1 SAM501   0.0000
    25 C2          47.9250     1.0360    14.3250 C.ar         1 SAM501   0.0000
    26 N3          47.2040     1.7880    15.2290 N.ar         1 SAM501   0.0000
    27 C4          47.5050     1.7360    16.5500 C.ar         1 SAM501   0.0000
    28 H1          45.6026     6.9787    24.9145 H            1 SAM501   0.0000
    29 HA          43.3056     6.7948    24.7679 H            1 SAM501   0.0000
    30 HB1         43.7007     8.2134    23.1940 H            1 SAM501   0.0000
    31 HB2         43.2833     6.9899    22.1963 H            1 SAM501   0.0000
    32 HG1         45.9802     7.6526    22.8631 H            1 SAM501   0.0000
    33 HG2         45.2285     8.1586    21.5045 H            1 SAM501   0.0000
    34 HE1         48.1692     5.7815    20.6814 H            1 SAM501   0.0000
    35 HE2         47.6951     7.3439    20.6551 H            1 SAM501   0.0000
    36 HE3         48.0168     6.6122    22.0791 H            1 SAM501   0.0000
    37 H5'1        46.3401     6.8184    19.1651 H            1 SAM501   0.0000
    38 H5'2        44.7749     7.0348    19.5775 H            1 SAM501   0.0000
    39 H4'         44.4775     5.5237    18.0071 H            1 SAM501   0.0000
    40 H3'         44.9348     4.0044    20.3846 H            1 SAM501   0.0000
    41 H14         42.7232     3.5258    20.1381 H            1 SAM501   0.0000
    42 H2'         45.1909     2.1154    19.2277 H            1 SAM501   0.0000
    43 H16         42.9545     2.1854    18.6332 H            1 SAM501   0.0000
    44 H1'         45.4289     3.3263    16.7244 H            1 SAM501   0.0000
    45 H18         47.4825     2.2180    19.6902 H            1 SAM501   0.0000
    46 H19         50.7784    -1.1538    15.8775 H            1 SAM501   0.0000
    47 H20         50.4742    -0.6474    17.5057 H            1 SAM501   0.0000
    48 H21         47.7016     1.0771    13.3511 H            1 SAM501   0.0000
    49 H22         45.0940     5.5248    25.4569 H            1 SAM501   0.0000
@<TRIPOS>BOND
     1    1    2       1
     2    2    3       1
     3    2    6       1
     4    3    4      ar
     5    3    5      ar
     6    6    7       1
     7    7    8       1
     8    8    9       1
     9    8   10       1
    10   10   11       1
    11   11   12       1
    12   11   13       1
    13   12   17       1
    14   13   14       1
    15   13   15       1
    16   15   16       1
    17   15   17       1
    18   17   18       1
    19   18   19       1
    20   18   27       1
    21   19   20       2
    22   20   21       1
    23   21   22      ar
    24   21   27      ar
    25   22   23       1
    26   22   24      ar
    27   24   25      ar
    28   25   26      ar
    29   26   27      ar
    30   25   48       1
    31    1   28       1
    32    2   29       1
    33    1   49       1
    34    6   30       1
    35    6   31       1
    36    7   32       1
    37    7   33       1
    38    9   34       1
    39    9   35       1
    40    9   36       1
    41   10   37       1
    42   10   38       1
    43   11   39       1
    44   13   40       1
    45   14   41       1
    46   15   42       1
    47   16   43       1
    48   17   44       1
    49   19   45       1
    50   23   46       1
    51   23   47       1
@<TRIPOS>SUBSTRUCTURE
     1 SAM501      1 GROUP             4 A     SAM     0 **** SAM A 501
