@<TRIPOS>MOLECULE
3i53_SAH_2_ligand
   45    47     1     0     0
SMALL
NO_CHARGES


@<TRIPOS>ATOM
     1 N           21.5900    13.1470    27.0660 N.3          1 SAH401   0.0000
     2 CA          20.8850    11.8600    26.9870 C.3          1 SAH401   0.0000
     3 CB          20.9050    11.3390    25.5490 C.3          1 SAH401   0.0000
     4 CG          20.3510    12.3930    24.5890 C.3          1 SAH401   0.0000
     5 SD          20.1500    11.7850    22.8750 S.3          1 SAH401   0.0000
     6 C           21.5720    10.8420    27.9000 C.2          1 SAH401   0.0000
     7 O           21.2840    10.8800    29.1170 O.co2        1 SAH401   0.0000
     8 OXT         22.3740    10.0570    27.3520 O.co2        1 SAH401  -1.0000
     9 C5'         18.4700    11.0720    23.0070 C.3          1 SAH401   0.0000
    10 C4'         18.4850     9.6650    23.6080 C.3          1 SAH401   0.0000
    11 O4'         17.1300     9.1880    23.6820 O.3          1 SAH401   0.0000
    12 C3'         19.2370     8.7150    22.6700 C.3          1 SAH401   0.0000
    13 O3'         20.0620     7.8300    23.4300 O.3          1 SAH401   0.0000
    14 C2'         18.1000     7.9410    22.0070 C.3          1 SAH401   0.0000
    15 O2'         18.5530     6.6320    21.6480 O.3          1 SAH401   0.0000
    16 C1'         17.1700     7.8330    23.2140 C.3          1 SAH401   0.0000
    17 N9          15.8210     7.3900    22.8020 N.pl3        1 SAH401   0.0000
    18 C8          15.1390     7.8330    21.7470 C.2          1 SAH401   0.0000
    19 N7          13.9580     7.2240    21.6950 N.2          1 SAH401   0.0000
    20 C5          13.8840     6.3870    22.7250 C.ar         1 SAH401   0.0000
    21 C6          12.9140     5.5110    23.1930 C.ar         1 SAH401   0.0000
    22 N6          11.7580     5.3750    22.5500 N.pl3        1 SAH401   0.0000
    23 N1          13.1660     4.8020    24.3030 N.ar         1 SAH401   0.0000
    24 C2          14.3120     4.9260    24.9490 C.ar         1 SAH401   0.0000
    25 N3          15.2580     5.7490    24.5320 N.ar         1 SAH401   0.0000
    26 C4          15.0740     6.4900    23.4320 C.ar         1 SAH401   0.0000
    27 H1          21.5719    13.4797    28.0089 H            1 SAH401   0.0000
    28 HA          19.9373    11.9828    27.2817 H            1 SAH401   0.0000
    29 HB1         20.3439    10.5133    25.4904 H            1 SAH401   0.0000
    30 HB2         21.8463    11.1214    25.2910 H            1 SAH401   0.0000
    31 HG1         20.9786    13.1715    24.5772 H            1 SAH401   0.0000
    32 HG2         19.4577    12.6901    24.9263 H            1 SAH401   0.0000
    33 H5'1        18.0663    11.0276    22.0932 H            1 SAH401   0.0000
    34 H5'2        17.9133    11.6649    23.5889 H            1 SAH401   0.0000
    35 H4'         18.9066     9.6729    24.5148 H            1 SAH401   0.0000
    36 H3'         19.7735     9.2211    21.9947 H            1 SAH401   0.0000
    37 H11         19.4913     7.2944    24.0525 H            1 SAH401   0.0000
    38 H2'         17.6880     8.4342    21.2409 H            1 SAH401   0.0000
    39 H13         18.3881     6.0023    22.4072 H            1 SAH401   0.0000
    40 H1'         17.5520     7.2237    23.9089 H            1 SAH401   0.0000
    41 H15         15.4647     8.5176    21.0950 H            1 SAH401   0.0000
    42 H16         11.0655     4.7414    22.8950 H            1 SAH401   0.0000
    43 H17         11.5812     5.9063    21.7215 H            1 SAH401   0.0000
    44 H18         14.4673     4.3833    25.7744 H            1 SAH401   0.0000
    45 H19         22.5385    13.0260    26.7734 H            1 SAH401   0.0000
@<TRIPOS>BOND
     1    1    2       1
     2    2    3       1
     3    2    6       1
     4    3    4       1
     5    4    5       1
     6    5    9       1
     7    6    7      ar
     8    6    8      ar
     9    9   10       1
    10   10   11       1
    11   10   12       1
    12   11   16       1
    13   12   13       1
    14   12   14       1
    15   14   15       1
    16   14   16       1
    17   16   17       1
    18   17   18       1
    19   17   26       1
    20   18   19       2
    21   19   20       1
    22   20   21      ar
    23   20   26      ar
    24   21   22       1
    25   21   23      ar
    26   23   24      ar
    27   24   25      ar
    28   25   26      ar
    29   24   44       1
    30    1   27       1
    31    2   28       1
    32    3   29       1
    33    3   30       1
    34    4   31       1
    35    4   32       1
    36    1   45       1
    37    9   33       1
    38    9   34       1
    39   10   35       1
    40   12   36       1
    41   13   37       1
    42   14   38       1
    43   15   39       1
    44   16   40       1
    45   18   41       1
    46   22   42       1
    47   22   43       1
@<TRIPOS>SUBSTRUCTURE
     1 SAH401      1 GROUP             4 B     SAH     0 **** SAH B 401
