@<TRIPOS>MOLECULE
1tfz_869_1_ligand
   56    58     1     0     0
SMALL
NO_CHARGES


@<TRIPOS>ATOM
     1 O30         37.2990    37.4720    52.3400 O.3          1 869551   0.0000
     2 C31         37.3490    36.1570    51.7690 C.3          1 869551   0.0000
     3 C24         39.2230    38.8020    51.7340 C.ar         1 869551   0.0000
     4 C25         40.5120    39.2700    52.0120 C.ar         1 869551   0.0000
     5 C26         41.1830    38.8450    53.1830 C.ar         1 869551   0.0000
     6 C27         40.5610    37.9640    54.0510 C.ar         1 869551   0.0000
     7 C28         39.2720    37.5030    53.7710 C.ar         1 869551   0.0000
     8 C29         38.6050    37.9240    52.6090 C.ar         1 869551   0.0000
     9 C1          43.5410    38.8610    52.6570 C.ar         1 869551   0.0000
    10 C2          44.8480    39.3390    52.9030 C.ar         1 869551   0.0000
    11 C3          45.0640    40.2680    53.9310 C.ar         1 869551   0.0000
    12 C4          44.0120    40.7300    54.7330 C.ar         1 869551   0.0000
    13 C5          42.6860    40.2750    54.5290 C.ar         1 869551   0.0000
    14 C6          42.4480    39.3100    53.4540 C.ar         1 869551   0.0000
    15 C7          43.3390    37.8200    51.7150 C.3          1 869551   0.0000
    16 C9          46.9410    37.7970    52.5700 C.2          1 869551   0.0000
    17 C15         47.9950    37.3700    51.8590 C.2          1 869551   0.0000
    18 C18         46.8590    37.4050    53.8810 C.2          1 869551   0.0000
    19 N16         48.6900    36.6260    52.7610 N.pl3        1 869551   0.0000
    20 N17         47.9750    36.6540    54.0260 N.2          1 869551   0.0000
    21 O19         48.2040    37.4520    50.4770 O.3          1 869551  -1.0000
    22 C8          45.9790    38.9070    52.0840 C.2          1 869551   0.0000
    23 O10         45.8480    39.1190    50.8620 O.2          1 869551   0.0000
    24 S11         41.5240    41.0020    55.3790 S.o2         1 869551   0.0000
    25 O13         40.6190    41.5870    54.5200 O.2          1 869551   0.0000
    26 O12         42.0670    42.0320    56.1110 O.2          1 869551   0.0000
    27 C14         40.6990    39.9780    56.4900 C.3          1 869551   0.0000
    28 C20         49.6170    35.5020    52.3890 C.3          1 869551   0.0000
    29 C21         48.8050    34.3050    51.9020 C.3          1 869551   0.0000
    30 C22         50.5580    35.9400    51.2870 C.3          1 869551   0.0000
    31 C23         50.5090    35.0720    53.5780 C.3          1 869551   0.0000
    32 H1          36.4196    35.8402    51.5797 H            1 869551   0.0000
    33 H2          37.8722    36.1831    50.9172 H            1 869551   0.0000
    34 H3          37.7901    35.5309    52.4120 H            1 869551   0.0000
    35 H4          38.7491    39.1007    50.9056 H            1 869551   0.0000
    36 H5          40.9594    39.9054    51.3826 H            1 869551   0.0000
    37 H6          41.0336    37.6579    54.8774 H            1 869551   0.0000
    38 H7          38.8222    36.8701    54.4012 H            1 869551   0.0000
    39 H8          45.9898    40.6085    54.0954 H            1 869551   0.0000
    40 H9          44.1999    41.3905    55.4599 H            1 869551   0.0000
    41 H10         42.3643    37.6030    51.6619 H            1 869551   0.0000
    42 H11         43.6641    38.1156    50.8167 H            1 869551   0.0000
    43 H12         43.8462    37.0075    52.0023 H            1 869551   0.0000
    44 H13         46.1543    37.6194    54.5574 H            1 869551   0.0000
    45 H14         39.9993    40.5049    56.9725 H            1 869551   0.0000
    46 H15         40.2662    39.2263    55.9923 H            1 869551   0.0000
    47 H16         41.3523    39.6080    57.1506 H            1 869551   0.0000
    48 H17         49.4247    33.5598    51.6556 H            1 869551   0.0000
    49 H18         48.1905    34.0007    52.6299 H            1 869551   0.0000
    50 H19         48.2677    34.5702    51.1014 H            1 869551   0.0000
    51 H20         51.1681    35.1841    51.0496 H            1 869551   0.0000
    52 H21         50.0277    36.2058    50.4819 H            1 869551   0.0000
    53 H22         51.0998    36.7194    51.6015 H            1 869551   0.0000
    54 H23         51.1091    34.3251    53.2915 H            1 869551   0.0000
    55 H24         51.0632    35.8489    53.8770 H            1 869551   0.0000
    56 H25         49.9312    34.7641    54.3339 H            1 869551   0.0000
@<TRIPOS>BOND
     1    1    2       1
     2    1    8       1
     3    3    4      ar
     4    3    8      ar
     5    4    5      ar
     6    5    6      ar
     7    5   14       1
     8    6    7      ar
     9    7    8      ar
    10    9   10      ar
    11    9   14      ar
    12    9   15       1
    13   10   11      ar
    14   10   22       1
    15   11   12      ar
    16   12   13      ar
    17   13   14      ar
    18   13   24       1
    19   16   17       2
    20   16   18       1
    21   16   22       1
    22   17   19       1
    23   17   21       1
    24   18   20       2
    25   19   20       1
    26   19   28       1
    27   22   23       2
    28   24   25       2
    29   24   26       2
    30   24   27       1
    31   28   29       1
    32   28   30       1
    33   28   31       1
    34    2   32       1
    35    2   33       1
    36    2   34       1
    37    3   35       1
    38    4   36       1
    39    6   37       1
    40    7   38       1
    41   11   39       1
    42   12   40       1
    43   15   41       1
    44   15   42       1
    45   15   43       1
    46   18   44       1
    47   31   56       1
    48   27   45       1
    49   27   46       1
    50   27   47       1
    51   29   48       1
    52   29   49       1
    53   29   50       1
    54   30   51       1
    55   30   52       1
    56   30   53       1
    57   31   54       1
    58   31   55       1
@<TRIPOS>SUBSTRUCTURE
     1 869551      1 GROUP             4 A     869     0 **** 869 A 551
