@<TRIPOS>MOLECULE
3ule_ATP_3_ligand
   43    45     1     0     0
SMALL
NO_CHARGES


@<TRIPOS>ATOM
     1 PG         -22.3390    31.5420    24.9530 P.3          1 ATP401   0.0000
     2 O1G        -22.5890    31.8440    23.3940 O.co2        1 ATP401   0.0000
     3 O2G        -21.0710    32.2640    25.6290 O.co2        1 ATP401  -1.0000
     4 O3G        -23.3480    30.8630    25.7990 O.co2        1 ATP401  -1.0000
     5 PB         -22.0560    28.7580    24.7310 P.3          1 ATP401   0.0000
     6 O1B        -21.3720    27.8700    23.7650 O.co2        1 ATP401   0.0000
     7 O2B        -23.5330    28.8420    24.6720 O.co2        1 ATP401  -1.0000
     8 O3B        -21.4510    30.2450    24.6000 O.3          1 ATP401   0.0000
     9 PA         -22.6060    27.4160    27.1090 P.3          1 ATP401   0.0000
    10 O1A        -22.4600    25.9470    27.0240 O.co2        1 ATP401   0.0000
    11 O2A        -23.8010    28.1290    27.6130 O.co2        1 ATP401  -1.0000
    12 O3A        -21.6200    28.3280    26.2180 O.3          1 ATP401   0.0000
    13 O5'        -21.6600    27.6450    28.3910 O.3          1 ATP401   0.0000
    14 C5'        -20.3330    27.1110    28.4180 C.3          1 ATP401   0.0000
    15 C4'        -19.5630    27.6920    29.6060 C.3          1 ATP401   0.0000
    16 O4'        -20.2080    27.2450    30.8130 O.3          1 ATP401   0.0000
    17 C3'        -18.1410    27.1280    29.6470 C.3          1 ATP401   0.0000
    18 O3'        -17.3000    28.0010    30.4030 O.3          1 ATP401   0.0000
    19 C2'        -18.3700    25.8260    30.4140 C.3          1 ATP401   0.0000
    20 O2'        -17.1470    25.4270    31.0370 O.3          1 ATP401   0.0000
    21 C1'        -19.3090    26.3540    31.4960 C.3          1 ATP401   0.0000
    22 N9         -20.0370    25.2410    32.1510 N.pl3        1 ATP401   0.0000
    23 C8         -20.4960    24.1490    31.5510 C.2          1 ATP401   0.0000
    24 N7         -21.1210    23.3800    32.4410 N.2          1 ATP401   0.0000
    25 C5         -21.0520    23.9880    33.6240 C.ar         1 ATP401   0.0000
    26 C6         -21.5100    23.6560    34.8920 C.ar         1 ATP401   0.0000
    27 N6         -22.2040    22.5390    35.0980 N.pl3        1 ATP401   0.0000
    28 N1         -21.2450    24.5320    35.9510 N.ar         1 ATP401   0.0000
    29 C2         -20.5380    25.7130    35.6930 C.ar         1 ATP401   0.0000
    30 N3         -20.1240    26.0000    34.4720 N.ar         1 ATP401   0.0000
    31 C4         -20.3580    25.1740    33.4390 C.ar         1 ATP401   0.0000
    32 H5'1       -19.8620    27.3496    27.5687 H            1 ATP401   0.0000
    33 H5'2       -20.3776    26.1159    28.5062 H            1 ATP401   0.0000
    34 H4'        -19.5464    28.6909    29.5626 H            1 ATP401   0.0000
    35 H3'        -17.7786    26.9622    28.7299 H            1 ATP401   0.0000
    36 H5         -16.8922    28.6811    29.7938 H            1 ATP401   0.0000
    37 H2'        -18.7799    25.1060    29.8540 H            1 ATP401   0.0000
    38 H7         -17.2918    24.5751    31.5404 H            1 ATP401   0.0000
    39 H1'        -18.7846    26.8623    32.1791 H            1 ATP401   0.0000
    40 H9         -20.3889    23.9365    30.5797 H            1 ATP401   0.0000
    41 H10        -22.5272    22.3135    36.0171 H            1 ATP401   0.0000
    42 H11        -22.4022    21.9254    34.3337 H            1 ATP401   0.0000
    43 H12        -20.3443    26.3465    36.4421 H            1 ATP401   0.0000
@<TRIPOS>BOND
     1    1    2      ar
     2    1    3      ar
     3    1    4      ar
     4    1    8       1
     5    5    6      ar
     6    5    7      ar
     7    5    8       1
     8    5   12       1
     9    9   10      ar
    10    9   11      ar
    11    9   12       1
    12    9   13       1
    13   13   14       1
    14   14   15       1
    15   15   16       1
    16   15   17       1
    17   16   21       1
    18   17   18       1
    19   17   19       1
    20   19   20       1
    21   19   21       1
    22   21   22       1
    23   22   23       1
    24   22   31       1
    25   23   24       2
    26   24   25       1
    27   25   26      ar
    28   25   31      ar
    29   26   27       1
    30   26   28      ar
    31   28   29      ar
    32   29   30      ar
    33   30   31      ar
    34   29   43       1
    35   27   42       1
    36   27   41       1
    37   23   40       1
    38   14   32       1
    39   14   33       1
    40   15   34       1
    41   17   35       1
    42   18   36       1
    43   19   37       1
    44   20   38       1
    45   21   39       1
@<TRIPOS>SUBSTRUCTURE
     1 ATP401      1 GROUP             4 B     ATP     0 **** ATP B 401
