@<TRIPOS>MOLECULE
4nm7_ADP_2_ligand
   39    41     1     0     0
SMALL
NO_CHARGES


@<TRIPOS>ATOM
     1 PB         -10.6280    45.0770   -12.3740 P.3          1 ADP401   0.0000
     2 O1B         -9.4470    44.7350   -13.2530 O.co2        1 ADP401   0.0000
     3 O2B        -11.8620    44.3730   -12.8810 O.co2        1 ADP401  -1.0000
     4 O3B        -10.8700    46.5660   -12.4150 O.co2        1 ADP401  -1.0000
     5 PA          -9.7360    43.2820   -10.3920 P.3          1 ADP401   0.0000
     6 O1A         -9.0210    42.5880   -11.5260 O.co2        1 ADP401   0.0000
     7 O2A        -10.8070    42.3710    -9.8400 O.co2        1 ADP401  -1.0000
     8 O3A        -10.3370    44.6630   -10.8790 O.3          1 ADP401   0.0000
     9 O5'         -8.6720    43.6290    -9.2830 O.3          1 ADP401   0.0000
    10 C5'         -7.7920    44.6860    -9.5850 C.3          1 ADP401   0.0000
    11 C4'         -6.4890    44.4400    -8.9520 C.3          1 ADP401   0.0000
    12 O4'         -6.6500    44.5400    -7.4580 O.3          1 ADP401   0.0000
    13 C3'         -6.0320    43.0800    -9.2680 C.3          1 ADP401   0.0000
    14 O3'         -5.1170    43.0890   -10.4040 O.3          1 ADP401   0.0000
    15 C2'         -5.3690    42.5970    -8.0720 C.3          1 ADP401   0.0000
    16 O2'         -3.9420    42.8880    -8.1420 O.3          1 ADP401   0.0000
    17 C1'         -5.9690    43.3080    -6.9290 C.3          1 ADP401   0.0000
    18 N9          -6.8630    42.4470    -6.3210 N.pl3        1 ADP401   0.0000
    19 C8          -8.0290    41.9970    -6.7960 C.2          1 ADP401   0.0000
    20 N7          -8.5800    41.1740    -5.9320 N.2          1 ADP401   0.0000
    21 C5          -7.7870    41.0640    -4.8780 C.ar         1 ADP401   0.0000
    22 C6          -7.8460    40.3600    -3.7040 C.ar         1 ADP401   0.0000
    23 N6          -8.9530    39.5330    -3.4350 N.pl3        1 ADP401   0.0000
    24 N1          -6.8550    40.4640    -2.8210 N.ar         1 ADP401   0.0000
    25 C2          -5.7950    41.2460    -3.0470 C.ar         1 ADP401   0.0000
    26 N3          -5.6960    41.9450    -4.1860 N.ar         1 ADP401   0.0000
    27 C4          -6.6650    41.8750    -5.1070 C.ar         1 ADP401   0.0000
    28 H5'1        -8.1724    45.5443    -9.2405 H            1 ADP401   0.0000
    29 H5'2        -7.6740    44.7477   -10.5761 H            1 ADP401   0.0000
    30 H4'         -5.8195    45.1106    -9.2714 H            1 ADP401   0.0000
    31 H3'         -6.8196    42.4994    -9.4744 H            1 ADP401   0.0000
    32 H5          -4.8199    42.1545   -10.6001 H            1 ADP401   0.0000
    33 H2'         -5.5127    41.6121    -7.9756 H            1 ADP401   0.0000
    34 H7          -3.6481    42.8872    -9.0978 H            1 ADP401   0.0000
    35 H1'         -5.2547    43.5685    -6.2795 H            1 ADP401   0.0000
    36 H9          -8.4240    42.2496    -7.6793 H            1 ADP401   0.0000
    37 H10         -8.9966    39.0189    -2.5784 H            1 ADP401   0.0000
    38 H11         -9.6957    39.4596    -4.1006 H            1 ADP401   0.0000
    39 H12         -5.0703    41.3100    -2.3609 H            1 ADP401   0.0000
@<TRIPOS>BOND
     1    1    2      ar
     2    1    3      ar
     3    1    4      ar
     4    1    8       1
     5    5    6      ar
     6    5    7      ar
     7    5    8       1
     8    5    9       1
     9    9   10       1
    10   10   11       1
    11   11   12       1
    12   11   13       1
    13   12   17       1
    14   13   14       1
    15   13   15       1
    16   15   16       1
    17   15   17       1
    18   17   18       1
    19   18   19       1
    20   18   27       1
    21   19   20       2
    22   20   21       1
    23   21   22      ar
    24   21   27      ar
    25   22   23       1
    26   22   24      ar
    27   24   25      ar
    28   25   26      ar
    29   26   27      ar
    30   25   39       1
    31   23   38       1
    32   23   37       1
    33   10   28       1
    34   10   29       1
    35   11   30       1
    36   13   31       1
    37   14   32       1
    38   15   33       1
    39   16   34       1
    40   17   35       1
    41   19   36       1
@<TRIPOS>SUBSTRUCTURE
     1 ADP401      1 GROUP             4 A     ADP     0 **** ADP A 401
