@<TRIPOS>MOLECULE
3qpv_ADP_1_ligand
   39    41     1     0     0
SMALL
NO_CHARGES


@<TRIPOS>ATOM
     1 PB          -7.6520    48.0400     4.7320 P.3          1 ADP700   0.0000
     2 O1B         -6.5540    48.3590     5.7850 O.co2        1 ADP700   0.0000
     3 O2B         -8.3230    49.1990     4.0220 O.co2        1 ADP700  -1.0000
     4 O3B         -7.3200    46.8960     3.7460 O.co2        1 ADP700  -1.0000
     5 PA         -10.3600    47.6570     5.6270 P.3          1 ADP700   0.0000
     6 O1A        -10.7930    48.9350     6.2750 O.co2        1 ADP700   0.0000
     7 O2A        -10.9790    47.3610     4.2830 O.co2        1 ADP700  -1.0000
     8 O3A         -8.7790    47.4370     5.7150 O.3          1 ADP700   0.0000
     9 O5'        -10.8290    46.6020     6.7560 O.3          1 ADP700   0.0000
    10 C5'        -12.1070    46.7270     7.4220 C.3          1 ADP700   0.0000
    11 C4'        -12.0430    45.9610     8.7440 C.3          1 ADP700   0.0000
    12 O4'        -11.0500    46.5490     9.6100 O.3          1 ADP700   0.0000
    13 C3'        -13.3410    45.9540     9.5390 C.3          1 ADP700   0.0000
    14 O3'        -13.5840    44.5800     9.7950 O.3          1 ADP700   0.0000
    15 C2'        -13.0070    46.6640    10.8490 C.3          1 ADP700   0.0000
    16 O2'        -13.4770    45.9650    11.9940 O.3          1 ADP700   0.0000
    17 C1'        -11.5090    46.5380    10.9400 C.3          1 ADP700   0.0000
    18 N9         -10.9040    47.6530    11.6670 N.pl3        1 ADP700   0.0000
    19 C8         -11.4520    48.8810    11.9110 C.2          1 ADP700   0.0000
    20 N7         -10.5520    49.6360    12.6280 N.2          1 ADP700   0.0000
    21 C5          -9.4420    48.8960    12.8430 C.ar         1 ADP700   0.0000
    22 C6          -8.1580    49.0940    13.5250 C.ar         1 ADP700   0.0000
    23 N6          -7.8950    50.2680    14.1200 N.pl3        1 ADP700   0.0000
    24 N1          -7.2580    48.0750    13.5490 N.ar         1 ADP700   0.0000
    25 C2          -7.5530    46.8870    12.9390 C.ar         1 ADP700   0.0000
    26 N3          -8.7260    46.6470    12.3070 N.ar         1 ADP700   0.0000
    27 C4          -9.6710    47.5950    12.2220 C.ar         1 ADP700   0.0000
    28 H5'1       -12.8273    46.3430     6.8443 H            1 ADP700   0.0000
    29 H5'2       -12.3014    47.6916     7.6003 H            1 ADP700   0.0000
    30 H4'        -11.7804    45.0152     8.5528 H            1 ADP700   0.0000
    31 H3'        -14.0940    46.3913     9.0472 H            1 ADP700   0.0000
    32 H5         -12.8216    44.1984    10.3176 H            1 ADP700   0.0000
    33 H2'        -13.3036    47.6190    10.8444 H            1 ADP700   0.0000
    34 H7         -13.9432    45.1286    11.7058 H            1 ADP700   0.0000
    35 H1'        -11.2653    45.6727    11.3780 H            1 ADP700   0.0000
    36 H9         -12.3591    49.1819    11.6166 H            1 ADP700   0.0000
    37 H10         -7.0213    50.4077    14.5860 H            1 ADP700   0.0000
    38 H11         -8.5727    51.0030    14.0973 H            1 ADP700   0.0000
    39 H12         -6.8678    46.1590    12.9609 H            1 ADP700   0.0000
@<TRIPOS>BOND
     1    1    2      ar
     2    1    3      ar
     3    1    4      ar
     4    1    8       1
     5    5    6      ar
     6    5    7      ar
     7    5    8       1
     8    5    9       1
     9    9   10       1
    10   10   11       1
    11   11   12       1
    12   11   13       1
    13   12   17       1
    14   13   14       1
    15   13   15       1
    16   15   16       1
    17   15   17       1
    18   17   18       1
    19   18   19       1
    20   18   27       1
    21   19   20       2
    22   20   21       1
    23   21   22      ar
    24   21   27      ar
    25   22   23       1
    26   22   24      ar
    27   24   25      ar
    28   25   26      ar
    29   26   27      ar
    30   25   39       1
    31   23   38       1
    32   23   37       1
    33   10   28       1
    34   10   29       1
    35   11   30       1
    36   13   31       1
    37   14   32       1
    38   15   33       1
    39   16   34       1
    40   17   35       1
    41   19   36       1
@<TRIPOS>SUBSTRUCTURE
     1 ADP700      1 GROUP             4 A     ADP     0 **** ADP A 700
