@<TRIPOS>MOLECULE
5fdg_0N8_1_ligand
   53    55     1     0     0
SMALL
NO_CHARGES


@<TRIPOS>ATOM
     1 CL2         -1.4230    30.0490    20.7240 Cl           1 0N8204   0.0000
     2 C19         -1.5490    30.9820    19.2830 C.ar         1 0N8204   0.0000
     3 C18         -1.3810    30.3540    18.0590 C.ar         1 0N8204   0.0000
     4 C17         -1.4860    31.0900    16.8860 C.ar         1 0N8204   0.0000
     5 C20         -1.8140    32.3490    19.3290 C.ar         1 0N8204   0.0000
     6 C21         -1.9140    33.0820    18.1470 C.ar         1 0N8204   0.0000
     7 C16         -1.7550    32.4580    16.9070 C.ar         1 0N8204   0.0000
     8 C15         -1.8270    33.1690    15.6860 C.3          1 0N8204   0.0000
     9 C11         -0.7470    34.2270    15.6990 C.3          1 0N8204   0.0000
    10 C10         -1.2560    35.1720    14.5270 C.3          1 0N8204   0.0000
    11 C9          -0.3250    36.5000    14.3080 C.3          1 0N8204   0.0000
    12 C14          0.3050    33.2150    15.1820 C.2          1 0N8204   0.0000
    13 O27          0.2060    32.7420    13.8920 O.2          1 0N8204   0.0000
    14 C22          1.3140    32.5520    16.1260 C.3          1 0N8204   0.0000
    15 C23          2.3160    31.5540    15.5520 C.2          1 0N8204   0.0000
    16 O28          2.2390    31.0580    14.4250 O.2          1 0N8204   0.0000
    17 C24          3.2410    30.9980    16.6250 C.2          1 0N8204   0.0000
    18 O26          3.1930    31.5240    17.7560 O.co2        1 0N8204   0.0000
    19 O25          4.1290    30.1580    16.3530 O.co2        1 0N8204  -1.0000
    20 C12         -0.3230    35.3740    16.3950 C.3          1 0N8204   0.0000
    21 C13          1.0490    35.7590    15.5430 C.3          1 0N8204   0.0000
    22 N8           0.9510    36.0320    14.0470 N.4          1 0N8204   1.0000
    23 C7           2.3440    36.4270    13.7310 C.3          1 0N8204   0.0000
    24 C2           3.3640    35.4900    13.9090 C.ar         1 0N8204   0.0000
    25 C3           4.2890    35.7240    14.9360 C.ar         1 0N8204   0.0000
    26 C4           5.3470    34.8580    15.1970 C.ar         1 0N8204   0.0000
    27 C5           5.5020    33.7400    14.3960 C.ar         1 0N8204   0.0000
    28 C6           4.5840    33.5170    13.3690 C.ar         1 0N8204   0.0000
    29 C1           3.5160    34.3750    13.1000 C.ar         1 0N8204   0.0000
    30 H1          -1.1848    29.3742    18.0206 H            1 0N8204   0.0000
    31 H2          -1.3660    30.6287    16.0069 H            1 0N8204   0.0000
    32 H3          -1.9327    32.8052    20.2109 H            1 0N8204   0.0000
    33 H4          -2.1013    34.0635    18.1872 H            1 0N8204   0.0000
    34 H5          -2.7245    33.6009    15.5969 H            1 0N8204   0.0000
    35 H6          -1.6805    32.5435    14.9196 H            1 0N8204   0.0000
    36 H7          -2.1862    35.4695    14.7418 H            1 0N8204   0.0000
    37 H8          -1.2622    34.6461    13.6765 H            1 0N8204   0.0000
    38 H9          -0.3259    37.0650    15.1331 H            1 0N8204   0.0000
    39 H10         -0.6628    37.0377    13.5354 H            1 0N8204   0.0000
    40 H11          0.7876    32.0696    16.8261 H            1 0N8204   0.0000
    41 H12          1.8425    33.2858    16.5529 H            1 0N8204   0.0000
    42 H13         -0.1175    35.1696    17.3521 H            1 0N8204   0.0000
    43 H14         -1.0031    36.1057    16.3490 H            1 0N8204   0.0000
    44 H15          1.6866    34.9973    15.6586 H            1 0N8204   0.0000
    45 H16          1.4320    36.5811    15.9643 H            1 0N8204   0.0000
    46 H17          2.5643    37.2146    14.3065 H            1 0N8204   0.0000
    47 H18          2.3611    36.7015    12.7696 H            1 0N8204   0.0000
    48 H19          4.1850    36.5423    15.5013 H            1 0N8204   0.0000
    49 H20          5.9820    35.0399    15.9478 H            1 0N8204   0.0000
    50 H21          6.2579    33.1038    14.5504 H            1 0N8204   0.0000
    51 H22          4.6965    32.7036    12.7983 H            1 0N8204   0.0000
    52 H23          2.8820    34.1912    12.3488 H            1 0N8204   0.0000
    53 H24          0.8245    35.1365    13.6203 H            1 0N8204   0.0000
@<TRIPOS>BOND
     1    1    2       1
     2    2    3      ar
     3    2    5      ar
     4    3    4      ar
     5    4    7      ar
     6    5    6      ar
     7    6    7      ar
     8    7    8       1
     9    8    9       1
    10    9   10       1
    11    9   12       1
    12    9   20       1
    13   10   11       1
    14   11   22       1
    15   12   13       2
    16   12   14       1
    17   14   15       1
    18   15   16       2
    19   15   17       1
    20   17   18      ar
    21   17   19      ar
    22   20   21       1
    23   21   22       1
    24   22   23       1
    25   23   24       1
    26   24   25      ar
    27   24   29      ar
    28   25   26      ar
    29   26   27      ar
    30   27   28      ar
    31   28   29      ar
    32    3   30       1
    33    4   31       1
    34    5   32       1
    35    6   33       1
    36    8   34       1
    37    8   35       1
    38   10   36       1
    39   10   37       1
    40   11   38       1
    41   11   39       1
    42   14   40       1
    43   14   41       1
    44   29   52       1
    45   20   42       1
    46   20   43       1
    47   21   44       1
    48   21   45       1
    49   23   46       1
    50   23   47       1
    51   25   48       1
    52   26   49       1
    53   27   50       1
    54   28   51       1
    55   22   53       1
@<TRIPOS>SUBSTRUCTURE
     1 0N8204      1 GROUP             4 A     0N8     0 **** 0N8 A 204
