@<TRIPOS>MOLECULE
4bec_ATP_1_ligand
   43    45     1     0     0
SMALL
NO_CHARGES


@<TRIPOS>ATOM
     1 PG         -26.1270    29.8560    12.5450 P.3          1 ATP1887   0.0000
     2 O1G        -25.9240    30.6540    11.2870 O.co2        1 ATP1887   0.0000
     3 O2G        -24.9640    29.3490    13.3580 O.co2        1 ATP1887  -1.0000
     4 O3G        -27.2100    30.5060    13.3380 O.co2        1 ATP1887  -1.0000
     5 PB         -26.0070    27.3810    11.2230 P.3          1 ATP1887   0.0000
     6 O1B        -24.8090    26.9690    12.0740 O.co2        1 ATP1887   0.0000
     7 O2B        -25.8920    27.8890     9.7930 O.co2        1 ATP1887  -1.0000
     8 O3B        -26.8020    28.5030    12.0230 O.3          1 ATP1887   0.0000
     9 PA         -27.0560    24.8890    12.0960 P.3          1 ATP1887   0.0000
    10 O1A        -26.1490    23.7590    11.7990 O.co2        1 ATP1887   0.0000
    11 O2A        -27.1130    25.4470    13.4920 O.co2        1 ATP1887  -1.0000
    12 O3A        -27.0210    26.1410    11.0760 O.3          1 ATP1887   0.0000
    13 O5'        -28.4430    24.2700    11.5630 O.3          1 ATP1887   0.0000
    14 C5'        -29.7000    24.8850    11.9430 C.3          1 ATP1887   0.0000
    15 C4'        -30.7330    23.8070    12.0500 C.3          1 ATP1887   0.0000
    16 O4'        -31.0870    23.2720    10.7790 O.3          1 ATP1887   0.0000
    17 C3'        -30.1860    22.6950    12.8990 C.3          1 ATP1887   0.0000
    18 O3'        -31.0960    22.3680    13.9400 O.3          1 ATP1887   0.0000
    19 C2'        -30.0510    21.5590    11.9480 C.3          1 ATP1887   0.0000
    20 O2'        -30.2670    20.3230    12.5700 O.3          1 ATP1887   0.0000
    21 C1'        -31.0340    21.8530    10.8650 C.3          1 ATP1887   0.0000
    22 N9         -30.4900    21.2730     9.6220 N.pl3        1 ATP1887   0.0000
    23 C8         -29.3810    21.6930     8.9600 C.2          1 ATP1887   0.0000
    24 N7         -29.1730    20.9320     7.8640 N.2          1 ATP1887   0.0000
    25 C5         -30.1200    20.0130     7.8060 C.ar         1 ATP1887   0.0000
    26 C6         -30.4700    18.9120     6.9060 C.ar         1 ATP1887   0.0000
    27 N6         -29.7320    18.6570     5.8180 N.pl3        1 ATP1887   0.0000
    28 N1         -31.5930    18.1950     7.2140 N.ar         1 ATP1887   0.0000
    29 C2         -32.3300    18.4500     8.2970 C.ar         1 ATP1887   0.0000
    30 N3         -32.0630    19.4300     9.1610 N.ar         1 ATP1887   0.0000
    31 C4         -31.0020    20.2310     8.9730 C.ar         1 ATP1887   0.0000
    32 H5'1       -29.9752    25.5502    11.2489 H            1 ATP1887   0.0000
    33 H5'2       -29.5988    25.3459    12.8247 H            1 ATP1887   0.0000
    34 H4'        -31.5512    24.1802    12.4872 H            1 ATP1887   0.0000
    35 H3'        -29.2946    22.9460    13.2765 H            1 ATP1887   0.0000
    36 H5         -30.8943    22.9244    14.7460 H            1 ATP1887   0.0000
    37 H2'        -29.1294    21.5694    11.5601 H            1 ATP1887   0.0000
    38 H7         -30.1671    19.5895    11.8977 H            1 ATP1887   0.0000
    39 H1'        -31.9327    21.4702    11.0792 H            1 ATP1887   0.0000
    40 H9         -28.8012    22.4568     9.2437 H            1 ATP1887   0.0000
    41 H10        -29.9807    17.9025     5.2107 H            1 ATP1887   0.0000
    42 H11        -28.9322    19.2211     5.6129 H            1 ATP1887   0.0000
    43 H12        -33.1282    17.8731     8.4705 H            1 ATP1887   0.0000
@<TRIPOS>BOND
     1    1    2      ar
     2    1    3      ar
     3    1    4      ar
     4    1    8       1
     5    5    6      ar
     6    5    7      ar
     7    5    8       1
     8    5   12       1
     9    9   10      ar
    10    9   11      ar
    11    9   12       1
    12    9   13       1
    13   13   14       1
    14   14   15       1
    15   15   16       1
    16   15   17       1
    17   16   21       1
    18   17   18       1
    19   17   19       1
    20   19   20       1
    21   19   21       1
    22   21   22       1
    23   22   23       1
    24   22   31       1
    25   23   24       2
    26   24   25       1
    27   25   26      ar
    28   25   31      ar
    29   26   27       1
    30   26   28      ar
    31   28   29      ar
    32   29   30      ar
    33   30   31      ar
    34   29   43       1
    35   27   42       1
    36   27   41       1
    37   23   40       1
    38   14   32       1
    39   14   33       1
    40   15   34       1
    41   17   35       1
    42   18   36       1
    43   19   37       1
    44   20   38       1
    45   21   39       1
@<TRIPOS>SUBSTRUCTURE
     1 ATP1887     1 GROUP             4 A     ATP     0 **** ATP A1887
