@<TRIPOS>MOLECULE
2ex1_C5P_1_ligand
   33    34     1     0     0
SMALL
NO_CHARGES


@<TRIPOS>ATOM
     1 O3P         14.1190    -4.5680    33.3740 O.co2        1 C5P1427   0.0000
     2 P           14.0990    -3.8290    31.9870 P.3          1 C5P1427   0.0000
     3 O1P         15.3930    -3.3090    31.6380 O.co2        1 C5P1427  -1.0000
     4 O2P         12.9060    -2.8310    31.8410 O.co2        1 C5P1427  -1.0000
     5 O5'         13.7550    -4.9810    30.8930 O.3          1 C5P1427   0.0000
     6 C5'         13.6320    -4.7390    29.5230 C.3          1 C5P1427   0.0000
     7 C4'         13.4410    -6.0740    28.9360 C.3          1 C5P1427   0.0000
     8 O4'         14.3730    -7.1690    29.2470 O.3          1 C5P1427   0.0000
     9 C3'         11.9890    -6.6990    29.1090 C.3          1 C5P1427   0.0000
    10 O3'         10.9260    -6.3210    28.2290 O.3          1 C5P1427   0.0000
    11 C2'         12.3010    -8.1600    29.3300 C.3          1 C5P1427   0.0000
    12 O2'         12.2610    -8.6050    27.9680 O.3          1 C5P1427   0.0000
    13 C1'         13.7080    -8.4040    29.4180 C.3          1 C5P1427   0.0000
    14 N1          14.0580    -8.7530    30.8930 N.pl3        1 C5P1427   0.0000
    15 C2          14.0960   -10.1800    31.2420 C.2          1 C5P1427   0.0000
    16 N3          14.3670   -10.5910    32.5170 N.2          1 C5P1427   0.0000
    17 C4          14.6270    -9.6470    33.5740 C.2          1 C5P1427   0.0000
    18 C5          14.6200    -8.2210    33.3330 C.2          1 C5P1427   0.0000
    19 C6          14.3360    -7.8610    32.0110 C.2          1 C5P1427   0.0000
    20 O2          13.8620   -11.0370    30.3350 O.2          1 C5P1427   0.0000
    21 N4          14.8800   -10.0670    34.8270 N.pl3        1 C5P1427   0.0000
    22 H5'1        14.4598    -4.3086    29.1632 H            1 C5P1427   0.0000
    23 H5'2        12.8434    -4.1532    29.3358 H            1 C5P1427   0.0000
    24 H4'         13.5385    -5.9323    27.9509 H            1 C5P1427   0.0000
    25 H3'         11.6895    -6.3751    30.0064 H            1 C5P1427   0.0000
    26 H5          10.2870    -7.0839    28.1312 H            1 C5P1427   0.0000
    27 H2'         11.7192    -8.6498    29.9793 H            1 C5P1427   0.0000
    28 H7          11.5550    -9.3060    27.8670 H            1 C5P1427   0.0000
    29 H1'         14.0191    -9.1017    28.7727 H            1 C5P1427   0.0000
    30 H9          14.8027    -7.5490    34.0506 H            1 C5P1427   0.0000
    31 H10         14.3223    -6.8813    31.8110 H            1 C5P1427   0.0000
    32 H11         15.0588    -9.4009    35.5511 H            1 C5P1427   0.0000
    33 H12         14.8892   -11.0453    35.0341 H            1 C5P1427   0.0000
@<TRIPOS>BOND
     1    1    2      ar
     2    2    3      ar
     3    2    4      ar
     4    2    5       1
     5    5    6       1
     6    6    7       1
     7    7    8       1
     8    7    9       1
     9    8   13       1
    10    9   10       1
    11    9   11       1
    12   11   12       1
    13   11   13       1
    14   13   14       1
    15   14   15       1
    16   14   19       1
    17   15   16       1
    18   15   20       2
    19   16   17       2
    20   17   18       1
    21   17   21       1
    22   18   19       2
    23   21   33       1
    24   21   32       1
    25    6   22       1
    26    6   23       1
    27    7   24       1
    28    9   25       1
    29   10   26       1
    30   11   27       1
    31   12   28       1
    32   13   29       1
    33   18   30       1
    34   19   31       1
@<TRIPOS>SUBSTRUCTURE
     1 C5P1427     1 GROUP             4 A     C5P     0 **** C5P A1427
