@<TRIPOS>MOLECULE
1p9l_PDC_1_ligand
   15    15     1     0     0
SMALL
NO_CHARGES


@<TRIPOS>ATOM
     1 N1         135.2060    25.0750    22.3550 N.ar         1 PDC302   0.0000
     2 C2         135.2810    26.4400    21.9660 C.ar         1 PDC302   0.0000
     3 C3         135.4020    26.7840    20.5990 C.ar         1 PDC302   0.0000
     4 C4         135.4360    25.7590    19.6260 C.ar         1 PDC302   0.0000
     5 C5         135.3440    24.4000    20.0110 C.ar         1 PDC302   0.0000
     6 C6         135.2370    24.0540    21.3780 C.ar         1 PDC302   0.0000
     7 C7         135.2160    27.3730    22.9520 C.2          1 PDC302   0.0000
     8 O1         135.3500    28.6920    22.6500 O.co2        1 PDC302   0.0000
     9 O2         135.0370    26.9790    24.2310 O.co2        1 PDC302  -1.0000
    10 C8         135.1770    22.7360    21.8230 C.2          1 PDC302   0.0000
    11 O3         135.1700    21.6970    20.9320 O.co2        1 PDC302   0.0000
    12 O4         135.1300    22.4830    23.1580 O.co2        1 PDC302  -1.0000
    13 H1         135.4629    27.7434    20.3236 H            1 PDC302   0.0000
    14 H2         135.5257    25.9958    18.6586 H            1 PDC302   0.0000
    15 H3         135.3547    23.6826    19.3144 H            1 PDC302   0.0000
@<TRIPOS>BOND
     1    1    2      ar
     2    1    6      ar
     3    2    3      ar
     4    2    7       1
     5    3    4      ar
     6    4    5      ar
     7    5    6      ar
     8    6   10       1
     9    7    8      ar
    10    7    9      ar
    11   10   11      ar
    12   10   12      ar
    13    3   13       1
    14    4   14       1
    15    5   15       1
@<TRIPOS>SUBSTRUCTURE
     1 PDC302      1 GROUP             4 A     PDC     0 **** PDC A 302
