@<TRIPOS>MOLECULE
1eio_GCH_1_ligand
   76    79     1     0     0
SMALL
NO_CHARGES


@<TRIPOS>ATOM
     1 C            0.2980    -2.8980    -4.7870 C.3          1 GCH128   0.0000
     2 O            0.8560    -3.2690    -6.0460 O.3          1 GCH128   0.0000
     3 C1          -0.1670    -1.4480    -4.8340 C.3          1 GCH128   0.0000
     4 C2          -0.8860    -0.9980    -3.5480 C.3          1 GCH128   0.0000
     5 C3          -2.0360    -1.9680    -3.1360 C.3          1 GCH128   0.0000
     6 C4          -1.4850    -3.4230    -3.1250 C.3          1 GCH128   0.0000
     7 C5          -0.8450    -3.8390    -4.4440 C.3          1 GCH128   0.0000
     8 C6          -2.4640    -1.6410    -1.6850 C.3          1 GCH128   0.0000
     9 C7          -1.3680     0.4640    -3.6680 C.3          1 GCH128   0.0000
    10 C8          -2.6130     0.6620    -4.5350 C.3          1 GCH128   0.0000
    11 O1          -2.2240     0.5670    -5.9080 O.3          1 GCH128   0.0000
    12 C9          -3.7510    -0.3280    -4.1880 C.3          1 GCH128   0.0000
    13 C10         -3.2360    -1.7990    -4.1370 C.3          1 GCH128   0.0000
    14 C11         -4.3950    -2.8030    -3.9000 C.3          1 GCH128   0.0000
    15 C12         -5.5610    -2.6380    -4.8940 C.3          1 GCH128   0.0000
    16 C13         -6.1090    -1.1960    -4.8900 C.3          1 GCH128   0.0000
    17 C14         -4.9110    -0.2510    -5.1880 C.3          1 GCH128   0.0000
    18 C15         -5.5530     1.1100    -5.4100 C.3          1 GCH128   0.0000
    19 C16         -6.8940     0.7780    -6.0660 C.3          1 GCH128   0.0000
    20 C17         -7.0450    -0.7700    -6.0700 C.3          1 GCH128   0.0000
    21 C18         -8.5310    -1.2350    -6.1230 C.3          1 GCH128   0.0000
    22 C19         -8.6450    -2.7430    -6.3670 C.3          1 GCH128   0.0000
    23 C20         -9.3000    -0.4690    -7.2360 C.3          1 GCH128   0.0000
    24 C21        -10.7720    -0.8500    -7.3780 C.3          1 GCH128   0.0000
    25 C22        -11.5490     0.2680    -8.0460 C.2          1 GCH128   0.0000
    26 N          -11.6750     0.1670    -9.4080 N.am         1 GCH128   0.0000
    27 CA         -12.5750     1.0400   -10.1480 C.3          1 GCH128   0.0000
    28 O2         -11.9930     1.2210    -7.4020 O.2          1 GCH128   0.0000
    29 C23         -6.7820    -0.9020    -3.5320 C.3          1 GCH128   0.0000
    30 O3          -5.0960    -2.9960    -6.2030 O.3          1 GCH128   0.0000
    31 C24        -12.0250     2.4460   -10.3630 C.2          1 GCH128   0.0000
    32 O4         -13.0080     3.3550   -10.5400 O.3          1 GCH128   0.0000
    33 O5         -10.8470     2.7660   -10.4050 O.2          1 GCH128   0.0000
    34 H1           1.0053    -2.9846    -4.0855 H            1 GCH128   0.0000
    35 H2           1.6364    -2.6786    -6.2517 H            1 GCH128   0.0000
    36 H3          -0.7963    -1.3411    -5.6038 H            1 GCH128   0.0000
    37 H4           0.6318    -0.8626    -4.9727 H            1 GCH128   0.0000
    38 H5          -0.2086    -1.0214    -2.8128 H            1 GCH128   0.0000
    39 H6          -2.2417    -4.0468    -2.9294 H            1 GCH128   0.0000
    40 H7          -0.7976    -3.4960    -2.4024 H            1 GCH128   0.0000
    41 H8          -0.4930    -4.7714    -4.3617 H            1 GCH128   0.0000
    42 H9          -1.5314    -3.8048    -5.1704 H            1 GCH128   0.0000
    43 H10         -3.2018    -2.2567    -1.4083 H            1 GCH128   0.0000
    44 H11         -1.6828    -1.7602    -1.0722 H            1 GCH128   0.0000
    45 H12         -2.7839    -0.6948    -1.6371 H            1 GCH128   0.0000
    46 H13         -0.6252     1.0047    -4.0628 H            1 GCH128   0.0000
    47 H14         -1.5728     0.8001    -2.7487 H            1 GCH128   0.0000
    48 H15         -2.9534     1.5887    -4.3760 H            1 GCH128   0.0000
    49 H16         -1.2797     0.8800    -6.0093 H            1 GCH128   0.0000
    50 H17         -4.1043    -0.0907    -3.2831 H            1 GCH128   0.0000
    51 H18         -2.8726    -2.0003    -5.0466 H            1 GCH128   0.0000
    52 H19         -4.7467    -2.6681    -2.9737 H            1 GCH128   0.0000
    53 H20         -4.0331    -3.7311    -3.9872 H            1 GCH128   0.0000
    54 H21         -6.2971    -3.2623    -4.6325 H            1 GCH128   0.0000
    55 H22         -4.5405    -0.5356    -6.0721 H            1 GCH128   0.0000
    56 H23         -4.9909     1.6747    -6.0143 H            1 GCH128   0.0000
    57 H24         -5.6896     1.5855    -4.5410 H            1 GCH128   0.0000
    58 H25         -6.9099     1.1246    -7.0039 H            1 GCH128   0.0000
    59 H26         -7.6403     1.1921    -5.5449 H            1 GCH128   0.0000
    60 H27         -6.6128    -1.0973    -6.9103 H            1 GCH128   0.0000
    61 H28         -8.9582    -1.0251    -5.2435 H            1 GCH128   0.0000
    62 H29         -9.6099    -3.0042    -6.3948 H            1 GCH128   0.0000
    63 H30         -8.2121    -2.9733    -7.2385 H            1 GCH128   0.0000
    64 H31         -8.1874    -3.2359    -5.6270 H            1 GCH128   0.0000
    65 H32         -8.8464    -0.6506    -8.1085 H            1 GCH128   0.0000
    66 H33         -9.2503     0.5086    -7.0316 H            1 GCH128   0.0000
    67 H34        -11.1564    -1.0213    -6.4709 H            1 GCH128   0.0000
    68 H35        -10.8452    -1.6786    -7.9330 H            1 GCH128   0.0000
    69 H36        -11.1393    -0.5183    -9.9014 H            1 GCH128   0.0000
    70 HA1        -13.4340     1.1110    -9.6409 H            1 GCH128   0.0000
    71 HA2        -12.7491     0.6288   -11.0427 H            1 GCH128   0.0000
    72 H39         -7.1366     0.0330    -3.5312 H            1 GCH128   0.0000
    73 H40         -7.5348    -1.5441    -3.3871 H            1 GCH128   0.0000
    74 H41         -6.1105    -1.0045    -2.7981 H            1 GCH128   0.0000
    75 H42         -5.8561    -3.3660    -6.7371 H            1 GCH128   0.0000
    76 H43        -12.7786     4.3165   -10.6912 H            1 GCH128   0.0000
@<TRIPOS>BOND
     1    1    2       1
     2    1    3       1
     3    1    7       1
     4    3    4       1
     5    4    5       1
     6    4    9       1
     7    5    6       1
     8    5    8       1
     9    5   13       1
    10    6    7       1
    11    9   10       1
    12   10   11       1
    13   10   12       1
    14   12   13       1
    15   12   17       1
    16   13   14       1
    17   14   15       1
    18   15   16       1
    19   15   30       1
    20   16   17       1
    21   16   20       1
    22   16   29       1
    23   17   18       1
    24   18   19       1
    25   19   20       1
    26   20   21       1
    27   21   22       1
    28   21   23       1
    29   23   24       1
    30   24   25       1
    31   25   26      am
    32   25   28       2
    33   26   27       1
    34   27   31       1
    35   31   32       1
    36   31   33       2
    37    1   34       1
    38    2   35       1
    39    3   36       1
    40    3   37       1
    41    4   38       1
    42    6   39       1
    43    6   40       1
    44    7   41       1
    45    7   42       1
    46    8   43       1
    47    8   44       1
    48    8   45       1
    49    9   46       1
    50    9   47       1
    51   10   48       1
    52   11   49       1
    53   12   50       1
    54   13   51       1
    55   14   52       1
    56   14   53       1
    57   15   54       1
    58   17   55       1
    59   18   56       1
    60   18   57       1
    61   19   58       1
    62   19   59       1
    63   20   60       1
    64   21   61       1
    65   22   62       1
    66   22   63       1
    67   22   64       1
    68   23   65       1
    69   23   66       1
    70   24   67       1
    71   24   68       1
    72   26   69       1
    73   27   70       1
    74   27   71       1
    75   29   72       1
    76   29   73       1
    77   29   74       1
    78   30   75       1
    79   32   76       1
@<TRIPOS>SUBSTRUCTURE
     1 GCH128      1 GROUP             4 A     GCH     0 **** GCH A 128
