@<TRIPOS>MOLECULE
1qk3_5GP_1_ligand
   36    38     1     0     0
SMALL
NO_CHARGES


@<TRIPOS>ATOM
     1 P           60.5190   108.3350   114.3770 P.3          1 5GP300   0.0000
     2 O1P         59.0930   108.5740   114.6540 O.co2        1 5GP300   0.0000
     3 O2P         60.8490   108.3850   112.8960 O.co2        1 5GP300  -1.0000
     4 O3P         61.4530   109.2730   115.2070 O.co2        1 5GP300  -1.0000
     5 O5'         60.9550   106.8580   114.8660 O.3          1 5GP300   0.0000
     6 C5'         61.5070   106.6510   116.1800 C.3          1 5GP300   0.0000
     7 C4'         61.8940   105.2010   116.4460 C.3          1 5GP300   0.0000
     8 O4'         60.6160   104.4950   116.6290 O.3          1 5GP300   0.0000
     9 C3'         62.5890   104.3960   115.3670 C.3          1 5GP300   0.0000
    10 O3'         63.9940   104.5490   115.3850 O.3          1 5GP300   0.0000
    11 C2'         62.2710   102.9660   115.7810 C.3          1 5GP300   0.0000
    12 O2'         63.1130   102.5420   116.8670 O.3          1 5GP300   0.0000
    13 C1'         60.8240   103.1110   116.2570 C.3          1 5GP300   0.0000
    14 N9          59.7550   102.7170   115.3190 N.pl3        1 5GP300   0.0000
    15 C8          58.9860   103.4930   114.4960 C.2          1 5GP300   0.0000
    16 N7          58.0820   102.8470   113.8100 N.2          1 5GP300   0.0000
    17 C5          58.2410   101.5220   114.2800 C.2          1 5GP300   0.0000
    18 C6          57.4920   100.3820   113.9100 C.2          1 5GP300   0.0000
    19 O6          56.5620   100.3110   113.1170 O.2          1 5GP300   0.0000
    20 N1          57.9230    99.2500   114.6210 N.pl3        1 5GP300   0.0000
    21 C2          58.9540    99.2570   115.5350 C.2          1 5GP300   0.0000
    22 N2          59.1760    98.0480   116.0990 N.pl3        1 5GP300   0.0000
    23 N3          59.6720   100.3310   115.8870 N.2          1 5GP300   0.0000
    24 C4          59.2490   101.4350   115.2060 C.2          1 5GP300   0.0000
    25 H5'1        60.8263   106.9280   116.8581 H            1 5GP300   0.0000
    26 H5'2        62.3234   107.2206   116.2753 H            1 5GP300   0.0000
    27 H4'         62.4251   105.1496   117.2918 H            1 5GP300   0.0000
    28 H3'         62.2141   104.6028   114.4633 H            1 5GP300   0.0000
    29 H5          64.3973   103.8544   115.9807 H            1 5GP300   0.0000
    30 H2'         62.3369   102.3397   115.0042 H            1 5GP300   0.0000
    31 H7          62.9696   103.1421   117.6539 H            1 5GP300   0.0000
    32 H1'         60.7206   102.5571   117.0831 H            1 5GP300   0.0000
    33 H9          59.1073   104.4831   114.4248 H            1 5GP300   0.0000
    34 H10         57.4517    98.3841   114.4532 H            1 5GP300   0.0000
    35 H11         59.9023    97.9386   116.7776 H            1 5GP300   0.0000
    36 H12         58.6138    97.2634   115.8374 H            1 5GP300   0.0000
@<TRIPOS>BOND
     1    1    2      ar
     2    1    3      ar
     3    1    4      ar
     4    1    5       1
     5    5    6       1
     6    6    7       1
     7    7    8       1
     8    7    9       1
     9    8   13       1
    10    9   10       1
    11    9   11       1
    12   11   12       1
    13   11   13       1
    14   13   14       1
    15   14   15       1
    16   14   24       1
    17   15   16       2
    18   16   17       1
    19   17   18       1
    20   17   24       2
    21   18   19       2
    22   18   20       1
    23   20   21       1
    24   21   22       1
    25   21   23       2
    26   23   24       1
    27   22   36       1
    28   22   35       1
    29    6   25       1
    30    6   26       1
    31    7   27       1
    32    9   28       1
    33   10   29       1
    34   11   30       1
    35   12   31       1
    36   13   32       1
    37   15   33       1
    38   20   34       1
@<TRIPOS>SUBSTRUCTURE
     1 5GP300      1 GROUP             4 A     5GP     0 **** 5GP A 300
