@<TRIPOS>MOLECULE
./coach420/1blc/ligand.pdb
 25 24 0 0 0
SMALL
GASTEIGER

@<TRIPOS>ATOM
      1  O1         4.3720   -4.5680  -13.9530 O.2   301  CEM301     -0.2936
      2  C2         4.0900   -5.6910  -13.5480 C.2   301  CEM301      0.1840
      3  C3         4.8150   -6.8580  -14.2730 C.3   301  CEM301      0.2522
      4  N4         4.4160   -8.1430  -13.7770 N.pl3 301  CEM301     -0.2199
      5  C5         5.4440   -8.4890  -12.7730 C.2   301  CEM301      0.0794
      6  C6         5.6370   -9.6640  -12.2430 C.2   301  CEM301      0.0281
      7  C7         4.8260  -10.8630  -12.4600 C.3   301  CEM301      0.2002
      8  O8         5.2010  -11.9200  -11.9790 O.3   301  CEM301     -0.0341
      9  C9         2.9960   -5.9460  -12.5560 C.3   301  CEM301      0.1024
     10  C10        3.4500   -5.8500  -11.1140 C.3   301  CEM301      0.1899
     11  O11        4.8110   -6.2290  -10.9280 O.3   301  CEM301     -0.2199
     12  C12        4.8300   -6.5570  -15.7670 C.2   301  CEM301      0.3913
     13  O13        5.0490   -5.3170  -15.9510 O.co2 301  CEM301     -0.2433
     14  O14        4.5630   -7.3480  -16.6610 O.co2 301  CEM301     -0.2433
     15  O1         1.7810   -9.6680   -8.1830 O.2   626  TEM626     -0.2945
     16  C2         2.2610   -8.5360   -8.1610 C.2   626  TEM626      0.1708
     17  C3         2.1280   -7.6360   -9.3960 C.3   626  TEM626      0.1533
     18  N4         1.4500   -8.3970  -10.4550 N.3   626  TEM626     -0.2054
     19  C5         2.2770   -9.1610  -11.3370 C.3   626  TEM626      0.1150
     20  C6         3.5230   -9.6390  -11.1990 C.2   626  TEM626     -0.0091
     21  C7         4.0780  -10.4610  -12.3110 C.2   626  TEM626      0.0076
     22  O8         5.2180  -10.8990  -12.2720 O.3   626  TEM626     -0.1826
     23  C9         2.9020   -7.9320   -6.9280 C.3   626  TEM626      0.1015
     24  C10        3.7840   -8.9580   -6.2320 C.3   626  TEM626      0.1899
     25  O11        3.0810  -10.1220   -5.7930 O.3   626  TEM626     -0.2199
@<TRIPOS>BOND
     1     1     2    2
     2     2     3    1
     3     2     9    1
     4     3    12    1
     5     3     4    1
     6     4     5    1
     7     5     6    2
     8     7    21    1
     9     7    22    1
    10     8    22    1
    11     9    10    1
    12    10    11    1
    13    12    14   ar
    14    12    13   ar
    15    15    16    2
    16    16    17    1
    17    16    23    1
    18    17    18    1
    19    18    19    1
    20    19    20    1
    21    23    24    1
    22    24    25    1
    23     7     6    1
    24    21    20    2
