@<TRIPOS>MOLECULE
1dj3_GDP_2_ligand
   41    43     1     0     0
SMALL
NO_CHARGES


@<TRIPOS>ATOM
     1 PB         112.0050    60.2020    48.7800 P.3          1 GDP600   0.0000
     2 O1B        111.6110    61.5610    49.1910 O.co2        1 GDP600   0.0000
     3 O2B        110.9750    59.1930    48.5260 O.co2        1 GDP600  -1.0000
     4 O3B        112.9470    60.3160    47.5460 O.co2        1 GDP600  -1.0000
     5 O3A        113.0030    59.5850    49.8900 O.3          1 GDP600   0.0000
     6 PA         112.9590    58.1490    50.6320 P.3          1 GDP600   0.0000
     7 O1A        111.5990    57.5360    50.4960 O.co2        1 GDP600   0.0000
     8 O2A        114.1470    57.3870    50.2600 O.co2        1 GDP600  -1.0000
     9 O5'        113.1350    58.6980    52.1440 O.3          1 GDP600   0.0000
    10 C5'        112.0650    58.5490    53.0950 C.3          1 GDP600   0.0000
    11 C4'        112.2850    57.3150    53.9890 C.3          1 GDP600   0.0000
    12 O4'        111.2830    57.3560    55.0030 O.3          1 GDP600   0.0000
    13 C3'        112.0810    55.9780    53.2780 C.3          1 GDP600   0.0000
    14 O3'        113.0270    55.0200    53.7210 O.3          1 GDP600   0.0000
    15 C2'        110.6510    55.5530    53.5960 C.3          1 GDP600   0.0000
    16 O2'        110.3620    54.1340    53.5680 O.3          1 GDP600   0.0000
    17 C1'        110.4770    56.1690    54.9730 C.3          1 GDP600   0.0000
    18 N9         109.0870    56.5690    55.2330 N.pl3        1 GDP600   0.0000
    19 C8         108.1210    56.9850    54.3680 C.2          1 GDP600   0.0000
    20 N7         106.9810    57.2750    54.8960 N.2          1 GDP600   1.0000
    21 C5         107.1910    57.0240    56.2490 C.2          1 GDP600   0.0000
    22 C6         106.2910    57.1730    57.3600 C.2          1 GDP600   0.0000
    23 O6         105.1170    57.5370    57.3440 O.2          1 GDP600   0.0000
    24 N1         106.9020    56.8170    58.5750 N.pl3        1 GDP600   0.0000
    25 C2         108.2120    56.3920    58.7160 C.2          1 GDP600   0.0000
    26 N2         108.6100    56.1060    59.9490 N.pl3        1 GDP600   0.0000
    27 N3         109.0630    56.2550    57.6810 N.2          1 GDP600   0.0000
    28 C4         108.4860    56.6000    56.4790 C.2          1 GDP600   0.0000
    29 H5'1       111.2016    58.4448    52.6014 H            1 GDP600   0.0000
    30 H5'2       112.0235    59.3658    53.6704 H            1 GDP600   0.0000
    31 H4'        113.1946    57.3486    54.4032 H            1 GDP600   0.0000
    32 H3'        112.1773    56.1083    52.2912 H            1 GDP600   0.0000
    33 H5         112.6279    54.1051    53.6612 H            1 GDP600   0.0000
    34 H2'        110.0331    56.0158    52.9604 H            1 GDP600   0.0000
    35 H7         109.3987    53.9855    53.7917 H            1 GDP600   0.0000
    36 H1'        110.7857    55.5281    55.6759 H            1 GDP600   0.0000
    37 H9         108.2855    57.0608    53.3845 H            1 GDP600   0.0000
    38 H10        106.3457    56.8754    59.4040 H            1 GDP600   0.0000
    39 H11        109.5459    55.7941    60.1126 H            1 GDP600   0.0000
    40 H12        107.9740    56.2024    60.7147 H            1 GDP600   0.0000
    41 H13        106.1501    57.6003    54.4445 H            1 GDP600   0.0000
@<TRIPOS>BOND
     1    1    2      ar
     2    1    3      ar
     3    1    4      ar
     4    1    5       1
     5    5    6       1
     6    6    7      ar
     7    6    8      ar
     8    6    9       1
     9    9   10       1
    10   10   11       1
    11   11   12       1
    12   11   13       1
    13   12   17       1
    14   13   14       1
    15   13   15       1
    16   15   16       1
    17   15   17       1
    18   17   18       1
    19   18   19       1
    20   18   28       1
    21   19   20       2
    22   20   21       1
    23   21   22       1
    24   21   28       2
    25   22   23       2
    26   22   24       1
    27   24   25       1
    28   25   26       1
    29   25   27       2
    30   27   28       1
    31   26   40       1
    32   26   39       1
    33   24   38       1
    34   10   29       1
    35   10   30       1
    36   11   31       1
    37   13   32       1
    38   14   33       1
    39   15   34       1
    40   16   35       1
    41   17   36       1
    42   19   37       1
    43   20   41       1
@<TRIPOS>SUBSTRUCTURE
     1 GDP600      1 GROUP             4 B     GDP     0 **** GDP B 600
