@<TRIPOS>MOLECULE
2b60_RIT_1_ligand
   98   101     1     0     0
SMALL
NO_CHARGES


@<TRIPOS>ATOM
     1 C1           8.5700    16.3390     4.8710 C.2          1 RIT100   0.0000
     2 C2           9.3110    15.6020     4.0340 C.2          1 RIT100   0.0000
     3 S3           9.0660    16.1850     2.5090 S.3          1 RIT100   0.0000
     4 C4           8.0000    17.3910     3.0040 C.2          1 RIT100   0.0000
     5 N5           7.8690    17.3020     4.3230 N.2          1 RIT100   0.0000
     6 C6          10.1540    14.5300     4.3660 C.3          1 RIT100   0.0000
     7 O7          10.9810    15.0680     5.3620 O.3          1 RIT100   0.0000
     8 C10         10.5000    14.9880     6.6210 C.2          1 RIT100   0.0000
     9 O24          9.4140    14.4220     6.8440 O.2          1 RIT100   0.0000
    10 N11         11.2430    15.5480     7.5600 N.am         1 RIT100   0.0000
    11 C12         10.9270    15.5800     9.0030 C.3          1 RIT100   0.0000
    12 C13         10.5720    16.9470     9.6780 C.3          1 RIT100   0.0000
    13 C14          9.2100    17.5010     9.3280 C.3          1 RIT100   0.0000
    14 C15          7.9950    16.9900    10.1020 C.3          1 RIT100   0.0000
    15 C26         12.2270    15.0950     9.5630 C.3          1 RIT100   0.0000
    16 C28         12.7010    13.8090     8.9290 C.ar         1 RIT100   0.0000
    17 C31         13.7320    13.8120     7.9940 C.ar         1 RIT100   0.0000
    18 C32         14.1670    12.6240     7.4200 C.ar         1 RIT100   0.0000
    19 C33         13.5810    11.4240     7.7730 C.ar         1 RIT100   0.0000
    20 C34         12.5570    11.4010     8.6910 C.ar         1 RIT100   0.0000
    21 C35         12.1220    12.5930     9.2630 C.ar         1 RIT100   0.0000
    22 O41         11.4960    17.9090     9.3010 O.3          1 RIT100   0.0000
    23 C44          6.8830    17.8590     9.5620 C.3          1 RIT100   0.0000
    24 C45          5.5020    17.5680    10.1560 C.ar         1 RIT100   0.0000
    25 C48          4.9400    18.4910    11.0160 C.ar         1 RIT100   0.0000
    26 C49          3.6870    18.2500    11.5630 C.ar         1 RIT100   0.0000
    27 C50          2.9960    17.0960    11.2570 C.ar         1 RIT100   0.0000
    28 C51          3.5710    16.1820    10.3920 C.ar         1 RIT100   0.0000
    29 C52          4.8250    16.4050     9.8330 C.ar         1 RIT100   0.0000
    30 N58          7.9730    17.1620    11.5790 N.am         1 RIT100   0.0000
    31 N20          6.4840    16.7890    14.3840 N.am         1 RIT100   0.0000
    32 C19          7.9030    16.6030    13.9440 C.3          1 RIT100   0.0000
    33 C18          7.8770    16.1690    12.4610 C.2          1 RIT100   0.0000
    34 O61          7.8030    15.0170    12.1360 O.2          1 RIT100   0.0000
    35 C62          8.5890    15.6320    14.8700 C.3          1 RIT100   0.0000
    36 C64          8.6460    16.2110    16.2830 C.3          1 RIT100   0.0000
    37 C68         10.0310    15.3610    14.4680 C.3          1 RIT100   0.0000
    38 C21          5.9910    17.9600    14.8030 C.2          1 RIT100   0.0000
    39 N74          4.6960    17.9980    15.1410 N.am         1 RIT100   0.0000
    40 C75          4.0740    19.2400    15.6130 C.3          1 RIT100   0.0000
    41 O76          6.6980    18.9610    14.8660 O.2          1 RIT100   0.0000
    42 C77          3.0540    19.8350    14.6600 C.2          1 RIT100   0.0000
    43 C80          3.3710    20.8070    13.7840 C.2          1 RIT100   0.0000
    44 S81          1.9690    21.1870    12.9170 S.3          1 RIT100   0.0000
    45 C82          1.0000    20.0870    13.7090 C.2          1 RIT100   0.0000
    46 N83          1.7580    19.4490    14.6110 N.2          1 RIT100   0.0000
    47 C85         -0.5010    19.8770    13.4470 C.3          1 RIT100   0.0000
    48 C86         -1.1190    21.1540    12.9000 C.3          1 RIT100   0.0000
    49 C90         -0.7790    18.7410    12.4870 C.3          1 RIT100   0.0000
    50 C95          3.9310    16.7430    15.0290 C.3          1 RIT100   0.0000
    51 H1           8.5523    16.1653     5.8556 H            1 RIT100   0.0000
    52 H2           7.5463    18.0559     2.4106 H            1 RIT100   0.0000
    53 H3          10.6903    14.2373     3.5743 H            1 RIT100   0.0000
    54 H4           9.6277    13.7555     4.7169 H            1 RIT100   0.0000
    55 H5          12.0924    15.9880     7.2685 H            1 RIT100   0.0000
    56 H6          10.2087    14.9133     9.2020 H            1 RIT100   0.0000
    57 H7          10.6215    16.8323    10.6702 H            1 RIT100   0.0000
    58 H8           9.0496    17.3017     8.3613 H            1 RIT100   0.0000
    59 H9           9.2505    18.4912     9.4620 H            1 RIT100   0.0000
    60 H10          7.8218    16.0331     9.8690 H            1 RIT100   0.0000
    61 H11         12.1139    14.9431    10.5449 H            1 RIT100   0.0000
    62 H12         12.9210    15.7990     9.4124 H            1 RIT100   0.0000
    63 H13         14.1629    14.6759     7.7334 H            1 RIT100   0.0000
    64 H14         14.9077    12.6377     6.7483 H            1 RIT100   0.0000
    65 H15         13.9016    10.5712     7.3607 H            1 RIT100   0.0000
    66 H16         12.1282    10.5342     8.9456 H            1 RIT100   0.0000
    67 H17         11.3762    12.5726     9.9289 H            1 RIT100   0.0000
    68 H18         11.9575    18.2645    10.1138 H            1 RIT100   0.0000
    69 H19          6.8323    17.7220     8.5727 H            1 RIT100   0.0000
    70 H20          7.1110    18.8133     9.7551 H            1 RIT100   0.0000
    71 H21          5.4340    19.3301    11.2439 H            1 RIT100   0.0000
    72 H22          3.2813    18.9197    12.1851 H            1 RIT100   0.0000
    73 H23          2.0945    16.9229    11.6537 H            1 RIT100   0.0000
    74 H24          3.0750    15.3441    10.1641 H            1 RIT100   0.0000
    75 H25          5.2301    15.7369     9.2089 H            1 RIT100   0.0000
    76 H26          8.0350    18.0937    11.9368 H            1 RIT100   0.0000
    77 H27          5.8734    15.9973    14.3636 H            1 RIT100   0.0000
    78 H28          8.3714    17.4843    14.0071 H            1 RIT100   0.0000
    79 H29          8.0807    14.7709    14.8842 H            1 RIT100   0.0000
    80 H30          9.1022    15.5615    16.8912 H            1 RIT100   0.0000
    81 H31          9.1563    17.0709    16.2705 H            1 RIT100   0.0000
    82 H32          7.7168    16.3795    16.6119 H            1 RIT100   0.0000
    83 H33         10.4402    14.7135    15.1109 H            1 RIT100   0.0000
    84 H34         10.0530    14.9743    13.5461 H            1 RIT100   0.0000
    85 H35         10.5477    16.2171    14.4828 H            1 RIT100   0.0000
    86 H36          4.7968    19.9156    15.7584 H            1 RIT100   0.0000
    87 H37          3.6161    19.0495    16.4814 H            1 RIT100   0.0000
    88 H38          4.2708    21.2275    13.6672 H            1 RIT100   0.0000
    89 H39         -0.9432    19.6646    14.3184 H            1 RIT100   0.0000
    90 H40         -2.0940    21.0075    12.7331 H            1 RIT100   0.0000
    91 H41         -1.0018    21.8922    13.5643 H            1 RIT100   0.0000
    92 H42         -0.6676    21.4022    12.0429 H            1 RIT100   0.0000
    93 H43         -1.7660    18.6506    12.3544 H            1 RIT100   0.0000
    94 H44         -0.3408    18.9320    11.6087 H            1 RIT100   0.0000
    95 H45         -0.4139    17.8895    12.8635 H            1 RIT100   0.0000
    96 H46          2.9844    16.9036    15.3085 H            1 RIT100   0.0000
    97 H47          3.9493    16.4249    14.0811 H            1 RIT100   0.0000
    98 H48          4.3403    16.0491    15.6214 H            1 RIT100   0.0000
@<TRIPOS>BOND
     1    1    2       2
     2    1    5       1
     3    2    3       1
     4    2    6       1
     5    3    4       1
     6    4    5       2
     7    6    7       1
     8    7    8       1
     9    8    9       2
    10    8   10      am
    11   10   11       1
    12   11   12       1
    13   11   15       1
    14   12   13       1
    15   12   22       1
    16   13   14       1
    17   14   23       1
    18   14   30       1
    19   15   16       1
    20   16   17      ar
    21   16   21      ar
    22   17   18      ar
    23   18   19      ar
    24   19   20      ar
    25   20   21      ar
    26   23   24       1
    27   24   25      ar
    28   24   29      ar
    29   25   26      ar
    30   26   27      ar
    31   27   28      ar
    32   28   29      ar
    33   30   33      am
    34   31   32       1
    35   31   38      am
    36   32   33       1
    37   32   35       1
    38   33   34       2
    39   35   36       1
    40   35   37       1
    41   38   39      am
    42   38   41       2
    43   39   40       1
    44   39   50       1
    45   40   42       1
    46   42   43       2
    47   42   46       1
    48   43   44       1
    49   44   45       1
    50   45   46       2
    51   45   47       1
    52   47   48       1
    53   47   49       1
    54    1   51       1
    55    4   52       1
    56    6   53       1
    57    6   54       1
    58   10   55       1
    59   11   56       1
    60   12   57       1
    61   13   58       1
    62   13   59       1
    63   14   60       1
    64   15   61       1
    65   15   62       1
    66   17   63       1
    67   18   64       1
    68   19   65       1
    69   20   66       1
    70   21   67       1
    71   22   68       1
    72   23   69       1
    73   23   70       1
    74   25   71       1
    75   26   72       1
    76   27   73       1
    77   28   74       1
    78   29   75       1
    79   30   76       1
    80   31   77       1
    81   32   78       1
    82   35   79       1
    83   36   80       1
    84   36   81       1
    85   36   82       1
    86   37   83       1
    87   37   84       1
    88   37   85       1
    89   40   86       1
    90   40   87       1
    91   43   88       1
    92   47   89       1
    93   48   90       1
    94   48   91       1
    95   48   92       1
    96   49   93       1
    97   49   94       1
    98   49   95       1
    99   50   96       1
   100   50   97       1
   101   50   98       1
@<TRIPOS>SUBSTRUCTURE
     1 RIT100      1 GROUP             4 B     RIT     0 **** RIT B 100
