@<TRIPOS>MOLECULE
1gqg_DCD_3_ligand
   18    17     1     0     0
SMALL
NO_CHARGES


@<TRIPOS>ATOM
     1 C5          78.9760     8.0020    37.3980 C.3          1 DCD1351   0.0000
     2 C3          78.2030     7.7700    36.1040 C.3          1 DCD1351   0.0000
     3 N1          77.5800     6.4520    36.0640 N.pl3        1 DCD1351   0.0000
     4 C1          78.1170     5.4340    35.3900 C.2          1 DCD1351   0.0000
     5 S2          77.4350     3.9720    35.3360 S.2          1 DCD1351   0.0000
     6 S1          79.5040     5.6400    34.6060 S.2          1 DCD1351  -1.0000
     7 C2          76.3290     6.3580    36.8020 C.3          1 DCD1351   0.0000
     8 C4          75.1860     6.8740    35.9280 C.3          1 DCD1351   0.0000
     9 H1          79.3852     8.9143    37.3829 H            1 DCD1351   0.0000
    10 H2          78.3525     7.9292    38.1764 H            1 DCD1351   0.0000
    11 H3          79.6972     7.3146    37.4832 H            1 DCD1351   0.0000
    12 H4          78.8342     7.8515    35.3327 H            1 DCD1351   0.0000
    13 H5          77.4894     8.4662    36.0258 H            1 DCD1351   0.0000
    14 H6          76.3894     6.9106    37.6333 H            1 DCD1351   0.0000
    15 H7          76.1571     5.4040    37.0476 H            1 DCD1351   0.0000
    16 H8          74.3253     6.8104    36.4331 H            1 DCD1351   0.0000
    17 H9          75.3586     7.8279    35.6824 H            1 DCD1351   0.0000
    18 H10         75.1263     6.3213    35.0967 H            1 DCD1351   0.0000
@<TRIPOS>BOND
     1    1    2       1
     2    2    3       1
     3    3    4       1
     4    3    7       1
     5    4    5       2
     6    4    6       1
     7    7    8       1
     8    1    9       1
     9    1   10       1
    10    1   11       1
    11    2   12       1
    12    2   13       1
    13    8   18       1
    14    7   14       1
    15    7   15       1
    16    8   16       1
    17    8   17       1
@<TRIPOS>SUBSTRUCTURE
     1 DCD1351     1 GROUP             4 C     DCD     0 **** DCD C1351
