@<TRIPOS>MOLECULE
3r9i_ADP_2_ligand
   40    42     1     0     0
SMALL
NO_CHARGES


@<TRIPOS>ATOM
     1 PB           3.3230     3.3270    -3.2470 P.3          1 ADP261   0.0000
     2 O1B          3.9770     3.5180    -1.9020 O.co2        1 ADP261   0.0000
     3 O2B          4.3780     3.1480    -4.3160 O.co2        1 ADP261  -1.0000
     4 O3B          2.2170     2.2940    -3.3020 O.co2        1 ADP261  -1.0000
     5 PA           2.4480     5.5380    -4.9260 P.3          1 ADP261   0.0000
     6 O1A          1.6650     4.7110    -5.9030 O.co2        1 ADP261   0.0000
     7 O2A          3.7780     6.0690    -5.3520 O.co2        1 ADP261  -1.0000
     8 O3A          2.5200     4.7160    -3.5250 O.3          1 ADP261   0.0000
     9 O5'          1.5460     6.7890    -4.4960 O.3          1 ADP261   0.0000
    10 C5'          0.4510     6.5260    -3.6190 C.3          1 ADP261   0.0000
    11 C4'         -0.6540     7.5210    -3.9530 C.3          1 ADP261   0.0000
    12 O4'         -0.2880     8.7640    -3.3740 O.3          1 ADP261   0.0000
    13 C3'         -0.8340     7.7600    -5.4450 C.3          1 ADP261   0.0000
    14 O3'         -2.2520     7.7330    -5.6820 O.3          1 ADP261   0.0000
    15 C2'         -0.2020     9.1290    -5.6880 C.3          1 ADP261   0.0000
    16 O2'         -0.9190     9.9490    -6.6120 O.3          1 ADP261   0.0000
    17 C1'         -0.2720     9.7890    -4.3370 C.3          1 ADP261   0.0000
    18 N9           0.8990    10.6240    -4.0180 N.pl3        1 ADP261   0.0000
    19 C8           2.1680    10.2250    -3.8470 C.2          1 ADP261   0.0000
    20 N7           2.9260    11.3030    -3.5380 N.2          1 ADP261   1.0000
    21 C5           2.1390    12.3800    -3.5090 C.ar         1 ADP261   0.0000
    22 C6           2.2940    13.8210    -3.2710 C.ar         1 ADP261   0.0000
    23 N6           3.4920    14.3520    -2.9810 N.pl3        1 ADP261   0.0000
    24 N1           1.1840    14.5870    -3.3530 N.ar         1 ADP261   0.0000
    25 C2          -0.0340    14.0870    -3.6390 C.ar         1 ADP261   0.0000
    26 N3          -0.2350    12.7850    -3.8730 N.ar         1 ADP261   0.0000
    27 C4           0.7970    11.9220    -3.8350 C.ar         1 ADP261   0.0000
    28 H5'1         0.7394     6.6426    -2.6686 H            1 ADP261   0.0000
    29 H5'2         0.1215     5.5917    -3.7552 H            1 ADP261   0.0000
    30 H4'         -1.5174     7.2082    -3.5572 H            1 ADP261   0.0000
    31 H3'         -0.3696     7.0529    -5.9782 H            1 ADP261   0.0000
    32 H5          -2.6182     6.8426    -5.4118 H            1 ADP261   0.0000
    33 H2'          0.7497     9.0273    -5.9776 H            1 ADP261   0.0000
    34 H7          -0.4460    10.8237    -6.7181 H            1 ADP261   0.0000
    35 H1'         -1.1075    10.3341    -4.2676 H            1 ADP261   0.0000
    36 H9           2.4996     9.2856    -3.9336 H            1 ADP261   0.0000
    37 H10          3.5777    15.3356    -2.8221 H            1 ADP261   0.0000
    38 H11          4.2989    13.7641    -2.9238 H            1 ADP261   0.0000
    39 H12         -0.8148    14.7106    -3.6777 H            1 ADP261   0.0000
    40 H13          3.9102    11.2938    -3.3612 H            1 ADP261   0.0000
@<TRIPOS>BOND
     1    1    2      ar
     2    1    3      ar
     3    1    4      ar
     4    1    8       1
     5    5    6      ar
     6    5    7      ar
     7    5    8       1
     8    5    9       1
     9    9   10       1
    10   10   11       1
    11   11   12       1
    12   11   13       1
    13   12   17       1
    14   13   14       1
    15   13   15       1
    16   15   16       1
    17   15   17       1
    18   17   18       1
    19   18   19       1
    20   18   27       1
    21   19   20       2
    22   20   21       1
    23   21   22      ar
    24   21   27      ar
    25   22   23       1
    26   22   24      ar
    27   24   25      ar
    28   25   26      ar
    29   26   27      ar
    30   25   39       1
    31   23   38       1
    32   23   37       1
    33   10   28       1
    34   10   29       1
    35   11   30       1
    36   13   31       1
    37   14   32       1
    38   15   33       1
    39   16   34       1
    40   17   35       1
    41   19   36       1
    42   20   40       1
@<TRIPOS>SUBSTRUCTURE
     1 ADP261      1 GROUP             4 B     ADP     0 **** ADP B 261
