@<TRIPOS>MOLECULE
2nv4_SAM_2_ligand
   50    52     1     0     0
SMALL
NO_CHARGES


@<TRIPOS>ATOM
     1 N           14.1270    23.7160    18.8050 N.4          1 SAM202   1.0000
     2 CA          13.2680    24.7040    18.1270 C.3          1 SAM202   0.0000
     3 C           12.7110    25.6730    19.0870 C.2          1 SAM202   0.0000
     4 O           11.9860    26.5630    18.6930 O.co2        1 SAM202   0.0000
     5 OXT         12.9810    25.5770    20.2550 O.co2        1 SAM202  -1.0000
     6 CB          12.0960    24.0420    17.4530 C.3          1 SAM202   0.0000
     7 CG          12.6340    23.0630    16.4820 C.3          1 SAM202   0.0000
     8 SD          11.2930    22.2810    15.5970 S.3          1 SAM202   1.0000
     9 CE          10.5390    21.2420    16.8820 C.3          1 SAM202   0.0000
    10 C5'         12.2690    21.2350    14.5270 C.3          1 SAM202   0.0000
    11 C4'         11.3360    20.5210    13.6290 C.3          1 SAM202   0.0000
    12 O4'         10.5770    21.4860    12.8510 O.3          1 SAM202   0.0000
    13 C3'         12.0780    19.5790    12.6890 C.3          1 SAM202   0.0000
    14 O3'         11.8850    18.2030    12.9950 O.3          1 SAM202   0.0000
    15 C2'         11.6040    19.9640    11.2790 C.3          1 SAM202   0.0000
    16 O2'         10.8330    18.9000    10.7290 O.3          1 SAM202   0.0000
    17 C1'         10.7370    21.2370    11.4370 C.3          1 SAM202   0.0000
    18 N9          11.3770    22.3550    10.6690 N.pl3        1 SAM202   0.0000
    19 C8          12.6760    22.8270    10.7520 C.2          1 SAM202   0.0000
    20 N7          12.8570    23.7910     9.8940 N.2          1 SAM202   0.0000
    21 C5          11.7130    24.0130     9.2060 C.ar         1 SAM202   0.0000
    22 C6          11.3050    24.9010     8.1570 C.ar         1 SAM202   0.0000
    23 N6          12.1820    25.8200     7.5940 N.pl3        1 SAM202   0.0000
    24 N1          10.0240    24.8250     7.7130 N.ar         1 SAM202   0.0000
    25 C2           9.1430    23.9480     8.2240 C.ar         1 SAM202   0.0000
    26 N3           9.4870    23.1050     9.1870 N.ar         1 SAM202   0.0000
    27 C4          10.7400    23.0980     9.7030 C.ar         1 SAM202   0.0000
    28 H1          13.5739    22.9330    19.0896 H            1 SAM202   0.0000
    29 H2          14.8415    23.4086    18.1766 H            1 SAM202   0.0000
    30 HA          13.8076    25.1933    17.4419 H            1 SAM202   0.0000
    31 HB1         11.5447    24.7271    16.9769 H            1 SAM202   0.0000
    32 HB2         11.5315    23.5735    18.1326 H            1 SAM202   0.0000
    33 HG1         13.1593    22.3663    16.9705 H            1 SAM202   0.0000
    34 HG2         13.2296    23.5345    15.8317 H            1 SAM202   0.0000
    35 HE1          9.7614    20.7459    16.4958 H            1 SAM202   0.0000
    36 HE2         11.2155    20.5888    17.2220 H            1 SAM202   0.0000
    37 HE3         10.2249    21.8193    17.6357 H            1 SAM202   0.0000
    38 H5'1        12.7873    20.5771    15.0734 H            1 SAM202   0.0000
    39 H5'2        12.9010    21.7926    13.9888 H            1 SAM202   0.0000
    40 H4'         10.7006    19.9855    14.1854 H            1 SAM202   0.0000
    41 H3'         13.0556    19.7790    12.7548 H            1 SAM202   0.0000
    42 H15         10.9828    18.0766    13.4073 H            1 SAM202   0.0000
    43 H2'         12.3912    20.1557    10.6929 H            1 SAM202   0.0000
    44 H17         10.7802    18.1507    11.3892 H            1 SAM202   0.0000
    45 H1'          9.8356    21.0573    11.0430 H            1 SAM202   0.0000
    46 H19         13.3733    22.4791    11.3787 H            1 SAM202   0.0000
    47 H20         11.8692    26.4269     6.8634 H            1 SAM202   0.0000
    48 H21         13.1260    25.8745     7.9194 H            1 SAM202   0.0000
    49 H22          8.2079    23.9312     7.8700 H            1 SAM202   0.0000
    50 H23         14.5482    24.1363    19.6087 H            1 SAM202   0.0000
@<TRIPOS>BOND
     1    1    2       1
     2    2    3       1
     3    2    6       1
     4    3    4      ar
     5    3    5      ar
     6    6    7       1
     7    7    8       1
     8    8    9       1
     9    8   10       1
    10   10   11       1
    11   11   12       1
    12   11   13       1
    13   12   17       1
    14   13   14       1
    15   13   15       1
    16   15   16       1
    17   15   17       1
    18   17   18       1
    19   18   19       1
    20   18   27       1
    21   19   20       2
    22   20   21       1
    23   21   22      ar
    24   21   27      ar
    25   22   23       1
    26   22   24      ar
    27   24   25      ar
    28   25   26      ar
    29   26   27      ar
    30    1   28       1
    31    1   29       1
    32    2   30       1
    33    1   50       1
    34    6   31       1
    35    6   32       1
    36    7   33       1
    37    7   34       1
    38    9   35       1
    39    9   36       1
    40    9   37       1
    41   10   38       1
    42   10   39       1
    43   11   40       1
    44   13   41       1
    45   14   42       1
    46   15   43       1
    47   16   44       1
    48   17   45       1
    49   19   46       1
    50   23   47       1
    51   23   48       1
    52   25   49       1
@<TRIPOS>SUBSTRUCTURE
     1 SAM202      1 GROUP             4 B     SAM     0 **** SAM B 202
