@<TRIPOS>MOLECULE
4cuk_NAI_2_ligand
   71    75     1     0     0
SMALL
NO_CHARGES


@<TRIPOS>ATOM
     1 O7N         85.2840    45.5510   184.0650 O.2          1 NAI1331   0.0000
     2 C7N         84.1140    45.2320   184.3410 C.2          1 NAI1331   0.0000
     3 N7N         83.1680    44.8840   183.3930 N.am         1 NAI1331   0.0000
     4 C3N         83.9560    45.2960   185.8640 C.2          1 NAI1331   0.0000
     5 C2N         83.6730    44.2450   186.7650 C.2          1 NAI1331   0.0000
     6 C4N         84.2780    46.6490   186.4210 C.3          1 NAI1331   0.0000
     7 C5N         84.2240    46.7410   187.8640 C.2          1 NAI1331   0.0000
     8 C6N         83.9070    45.6440   188.6360 C.2          1 NAI1331   0.0000
     9 N1N         83.6310    44.4390   188.1060 N.pl3        1 NAI1331   0.0000
    10 C1D         83.3330    43.3330   189.0460 C.3          1 NAI1331   0.0000
    11 O4D         82.1350    43.6030   189.8150 O.3          1 NAI1331   0.0000
    12 C2D         84.5490    43.1910   190.0040 C.3          1 NAI1331   0.0000
    13 O2D         85.1580    41.8870   190.0700 O.3          1 NAI1331   0.0000
    14 C3D         84.0020    43.6310   191.3600 C.3          1 NAI1331   0.0000
    15 O3D         84.5280    42.8770   192.4620 O.3          1 NAI1331   0.0000
    16 C4D         82.4660    43.5220   191.2340 C.3          1 NAI1331   0.0000
    17 C5D         81.7110    44.5110   192.1450 C.3          1 NAI1331   0.0000
    18 O5D         82.4660    45.7300   192.2320 O.3          1 NAI1331   0.0000
    19 PN          82.5690    46.7630   193.4850 P.3          1 NAI1331   0.0000
    20 O1N         83.6370    47.8200   193.0640 O.co2        1 NAI1331   0.0000
    21 O2N         81.1820    47.0850   193.9230 O.co2        1 NAI1331  -1.0000
    22 O3          83.2340    45.7540   194.5950 O.3          1 NAI1331   0.0000
    23 PA          83.4190    45.9430   196.2130 P.3          1 NAI1331   0.0000
    24 O1A         83.1770    47.4090   196.6990 O.co2        1 NAI1331   0.0000
    25 O2A         84.6140    45.0390   196.5080 O.co2        1 NAI1331  -1.0000
    26 O5B         82.1580    45.1200   196.7770 O.3          1 NAI1331   0.0000
    27 C5B         81.9410    43.8220   196.2920 C.3          1 NAI1331   0.0000
    28 C4B         80.5970    43.5070   196.8430 C.3          1 NAI1331   0.0000
    29 C3B         80.7360    43.5040   198.3650 C.3          1 NAI1331   0.0000
    30 O3B         79.5440    44.1150   198.9370 O.3          1 NAI1331   0.0000
    31 C2B         80.8850    42.0080   198.6540 C.3          1 NAI1331   0.0000
    32 O2B         80.4850    41.6330   199.9970 O.3          1 NAI1331   0.0000
    33 C1B         79.9970    41.3940   197.5180 C.3          1 NAI1331   0.0000
    34 O4B         80.1320    42.2320   196.3480 O.3          1 NAI1331   0.0000
    35 N9A         80.1840    39.9260   197.2710 N.pl3        1 NAI1331   0.0000
    36 C4A         79.1460    39.1530   196.9630 C.ar         1 NAI1331   0.0000
    37 C5A         79.6740    37.7500   196.8500 C.ar         1 NAI1331   0.0000
    38 N7A         80.9970    37.8130   197.1180 N.2          1 NAI1331   0.0000
    39 C8A         81.2910    39.1230   197.3800 C.2          1 NAI1331   0.0000
    40 N3A         77.8260    39.4160   196.7510 N.ar         1 NAI1331   0.0000
    41 C2A         76.9940    38.4480   196.4220 C.ar         1 NAI1331   0.0000
    42 N1A         77.3930    37.1540   196.2480 N.ar         1 NAI1331   0.0000
    43 C6A         78.6600    36.7060   196.4600 C.ar         1 NAI1331   0.0000
    44 N6A         78.9670    35.3870   196.3110 N.pl3        1 NAI1331   0.0000
    45 H7N1        82.2420    44.6366   183.6781 H            1 NAI1331   0.0000
    46 H7N2        83.4104    44.8799   182.4228 H            1 NAI1331   0.0000
    47 H2N         83.4983    43.3297   186.4022 H            1 NAI1331   0.0000
    48 H4N1        83.6241    47.3044   186.0430 H            1 NAI1331   0.0000
    49 H4N2        85.2023    46.8937   186.1283 H            1 NAI1331   0.0000
    50 H5N         84.4199    47.6150   188.3086 H            1 NAI1331   0.0000
    51 H6N         83.8812    45.7482   189.6302 H            1 NAI1331   0.0000
    52 H1D         83.2137    42.4834   188.5323 H            1 NAI1331   0.0000
    53 H2D         85.2478    43.8480   189.7211 H            1 NAI1331   0.0000
    54 H10         84.4661    41.1867   189.8946 H            1 NAI1331   0.0000
    55 H3D         84.2383    44.5930   191.4966 H            1 NAI1331   0.0000
    56 H12         85.1690    42.1899   192.1200 H            1 NAI1331   0.0000
    57 H4D         82.2161    42.6023   191.5367 H            1 NAI1331   0.0000
    58 H5D1        81.6064    44.1148   193.0572 H            1 NAI1331   0.0000
    59 H5D2        80.8085    44.7016   191.7588 H            1 NAI1331   0.0000
    60 H5B1        82.6324    43.1858   196.6345 H            1 NAI1331   0.0000
    61 H5B2        81.9372    43.8036   195.2922 H            1 NAI1331   0.0000
    62 H4B         79.9526    44.2219   196.5714 H            1 NAI1331   0.0000
    63 H3B         81.5570    44.0013   198.6456 H            1 NAI1331   0.0000
    64 H20         78.7374    43.5895   198.6662 H            1 NAI1331   0.0000
    65 H2B         81.8370    41.7388   198.5080 H            1 NAI1331   0.0000
    66 H22         79.5124    41.4006   200.0025 H            1 NAI1331   0.0000
    67 H1B         79.0507    41.5012   197.8230 H            1 NAI1331   0.0000
    68 H8A         82.2027    39.4552   197.6218 H            1 NAI1331   0.0000
    69 H2A         76.0277    38.6714   196.2942 H            1 NAI1331   0.0000
    70 H6A1        78.2555    34.7344   196.0504 H            1 NAI1331   0.0000
    71 H6A2        79.9038    35.0715   196.4622 H            1 NAI1331   0.0000
@<TRIPOS>BOND
     1    1    2       2
     2    2    3      am
     3    2    4       1
     4    4    5       2
     5    4    6       1
     6    5    9       1
     7    6    7       1
     8    7    8       2
     9    8    9       1
    10    9   10       1
    11   10   11       1
    12   10   12       1
    13   11   16       1
    14   12   13       1
    15   12   14       1
    16   14   15       1
    17   14   16       1
    18   16   17       1
    19   17   18       1
    20   18   19       1
    21   19   20      ar
    22   19   21      ar
    23   19   22       1
    24   22   23       1
    25   23   24      ar
    26   23   25      ar
    27   23   26       1
    28   26   27       1
    29   27   28       1
    30   28   29       1
    31   28   34       1
    32   29   30       1
    33   29   31       1
    34   31   32       1
    35   31   33       1
    36   33   34       1
    37   33   35       1
    38   35   36       1
    39   35   39       1
    40   36   37      ar
    41   36   40      ar
    42   37   38       1
    43   37   43      ar
    44   38   39       2
    45   40   41      ar
    46   41   42      ar
    47   42   43      ar
    48   43   44       1
    49    3   45       1
    50    3   46       1
    51    5   47       1
    52    6   48       1
    53    6   49       1
    54    7   50       1
    55    8   51       1
    56   10   52       1
    57   12   53       1
    58   13   54       1
    59   14   55       1
    60   15   56       1
    61   16   57       1
    62   17   58       1
    63   17   59       1
    64   44   71       1
    65   44   70       1
    66   27   60       1
    67   27   61       1
    68   28   62       1
    69   29   63       1
    70   30   64       1
    71   31   65       1
    72   32   66       1
    73   33   67       1
    74   39   68       1
    75   41   69       1
@<TRIPOS>SUBSTRUCTURE
     1 NAI1331     1 GROUP             4 D     NAI     0 **** NAI D1331
