@<TRIPOS>MOLECULE
4zm6_ACO_2_ligand
   85    87     1     0     0
SMALL
NO_CHARGES


@<TRIPOS>ATOM
     1 N1A        115.1450   182.5800   155.4230 N.ar         1 ACO901   0.0000
     2 C2A        114.7610   181.5160   156.1620 C.ar         1 ACO901   0.0000
     3 N3A        113.6300   180.8240   155.9120 N.ar         1 ACO901   0.0000
     4 C4A        112.8040   181.1610   154.8840 C.ar         1 ACO901   0.0000
     5 C5A        113.1630   182.3140   154.0440 C.ar         1 ACO901   0.0000
     6 C6A        114.4190   183.0290   154.3720 C.ar         1 ACO901   0.0000
     7 N6A        114.8160   184.0960   153.6390 N.pl3        1 ACO901   0.0000
     8 N7A        112.1950   182.4340   153.1240 N.2          1 ACO901   0.0000
     9 C8A        111.2880   181.4510   153.3440 C.2          1 ACO901   0.0000
    10 N9A        111.6480   180.6890   154.3970 N.pl3        1 ACO901   0.0000
    11 C1B        110.8910   179.5250   154.9430 C.3          1 ACO901   0.0000
    12 C2B        109.4330   179.8720   155.2270 C.3          1 ACO901   0.0000
    13 O2B        109.2460   180.5150   156.4880 O.3          1 ACO901   0.0000
    14 C3B        108.7870   178.5150   155.2130 C.3          1 ACO901   0.0000
    15 O3B        109.0370   177.9410   156.4930 O.3          1 ACO901   0.0000
    16 P3B        108.1360   176.8000   157.1840 P.3          1 ACO901   0.0000
    17 O7A        106.7040   177.2530   156.9880 O.co2        1 ACO901   0.0000
    18 O8A        108.5380   175.5530   156.4320 O.co2        1 ACO901  -1.0000
    19 O9A        108.5930   176.8170   158.6230 O.co2        1 ACO901  -1.0000
    20 C4B        109.5450   177.7870   154.1140 C.3          1 ACO901   0.0000
    21 O4B        110.8360   178.4110   154.0390 O.3          1 ACO901   0.0000
    22 C5B        108.8350   177.8450   152.7580 C.3          1 ACO901   0.0000
    23 O5B        108.2670   179.1320   152.4750 O.3          1 ACO901   0.0000
    24 P1A        108.3300   179.7390   150.9810 P.3          1 ACO901   0.0000
    25 O1A        109.7820   179.8480   150.5870 O.co2        1 ACO901   0.0000
    26 O2A        107.4160   180.9340   150.8990 O.co2        1 ACO901  -1.0000
    27 O3A        107.6570   178.5840   150.0870 O.3          1 ACO901   0.0000
    28 P2A        108.4250   177.9290   148.8400 P.3          1 ACO901   0.0000
    29 O4A        109.0170   179.0280   148.0040 O.co2        1 ACO901   0.0000
    30 O5A        109.2990   176.8190   149.3670 O.co2        1 ACO901  -1.0000
    31 O6A        107.2140   177.3080   147.9940 O.3          1 ACO901   0.0000
    32 CBP        106.0040   175.3000   147.5050 C.3          1 ACO901   0.0000
    33 CCP        106.3140   176.3570   148.5580 C.3          1 ACO901   0.0000
    34 CDP        105.2400   175.9630   146.3630 C.3          1 ACO901   0.0000
    35 CEP        105.1530   174.1990   148.1270 C.3          1 ACO901   0.0000
    36 CAP        107.3380   174.7380   146.9850 C.3          1 ACO901   0.0000
    37 OAP        108.0750   174.0920   148.0300 O.3          1 ACO901   0.0000
    38 C9P        107.1410   173.7840   145.8450 C.2          1 ACO901   0.0000
    39 O9P        107.3270   174.1880   144.7140 O.2          1 ACO901   0.0000
    40 N8P        106.7690   172.5320   146.1030 N.am         1 ACO901   0.0000
    41 C7P        106.5410   171.5750   145.0350 C.3          1 ACO901   0.0000
    42 C6P        105.3600   171.9760   144.1560 C.3          1 ACO901   0.0000
    43 C5P        104.0360   171.3940   144.6060 C.2          1 ACO901   0.0000
    44 O5P        103.9630   170.4070   145.3270 O.2          1 ACO901   0.0000
    45 N4P        102.9760   171.9720   144.0500 N.am         1 ACO901   0.0000
    46 C3P        101.6960   171.3040   143.9590 C.3          1 ACO901   0.0000
    47 C2P        100.6810   171.6890   145.0120 C.3          1 ACO901   0.0000
    48 S1P         99.1090   171.2800   144.3290 S.3          1 ACO901   0.0000
    49 C           98.6580   172.7440   143.6690 C.2          1 ACO901   0.0000
    50 O           99.5100   173.5320   143.3060 O.2          1 ACO901   0.0000
    51 CH3         97.2020   173.0670   143.5320 C.3          1 ACO901   0.0000
    52 H2A        115.3391   181.2295   156.9260 H            1 ACO901   0.0000
    53 H6A1       114.2609   184.4071   152.8676 H            1 ACO901   0.0000
    54 H6A2       115.6643   184.5730   153.8691 H            1 ACO901   0.0000
    55 H8A        110.4620   181.3096   152.7983 H            1 ACO901   0.0000
    56 H1B        111.3241   179.2289   155.7943 H            1 ACO901   0.0000
    57 H2B        109.0627   180.4390   154.4912 H            1 ACO901   0.0000
    58 H7         109.5619   179.9114   157.2200 H            1 ACO901   0.0000
    59 H3B        107.8083   178.5711   155.0154 H            1 ACO901   0.0000
    60 H4B        109.6617   176.8298   154.3790 H            1 ACO901   0.0000
    61 H5B1       108.1015   177.1654   152.7534 H            1 ACO901   0.0000
    62 H5B2       109.4976   177.6251   152.0421 H            1 ACO901   0.0000
    63 HCP1       105.4693   176.8151   148.8349 H            1 ACO901   0.0000
    64 HCP2       106.7358   175.9252   149.3553 H            1 ACO901   0.0000
    65 HDP1       105.0290   175.2809   145.6629 H            1 ACO901   0.0000
    66 HDP2       104.3894   176.3545   146.7140 H            1 ACO901   0.0000
    67 HDP3       105.8008   176.6882   145.9635 H            1 ACO901   0.0000
    68 HEP1       104.9492   173.5050   147.4365 H            1 ACO901   0.0000
    69 HEP2       105.6530   173.7789   148.8844 H            1 ACO901   0.0000
    70 HEP3       104.2985   174.5907   148.4682 H            1 ACO901   0.0000
    71 HAP        107.8857   175.5055   146.6521 H            1 ACO901   0.0000
    72 H21        108.6706   174.7582   148.4788 H            1 ACO901   0.0000
    73 H8P        106.6439   172.2445   147.0526 H            1 ACO901   0.0000
    74 H7P1       106.3548   170.6789   145.4379 H            1 ACO901   0.0000
    75 H7P2       107.3629   171.5213   144.4678 H            1 ACO901   0.0000
    76 H6P1       105.5409   171.6634   143.2235 H            1 ACO901   0.0000
    77 H6P2       105.2851   172.9731   144.1647 H            1 ACO901   0.0000
    78 H4P        103.0662   172.8978   143.6830 H            1 ACO901   0.0000
    79 H3P1       101.8569   170.3197   144.0322 H            1 ACO901   0.0000
    80 H3P2       101.3036   171.5119   143.0630 H            1 ACO901   0.0000
    81 H2P1       100.7332   172.6688   145.2052 H            1 ACO901   0.0000
    82 H2P2       100.8399   171.1742   145.8545 H            1 ACO901   0.0000
    83 HH31        97.0987   173.9733   143.1223 H            1 ACO901   0.0000
    84 HH32        96.7628   172.3849   142.9473 H            1 ACO901   0.0000
    85 HH33        96.7723   173.0584   144.4349 H            1 ACO901   0.0000
@<TRIPOS>BOND
     1    1    2      ar
     2    1    6      ar
     3    2    3      ar
     4    3    4      ar
     5    4    5      ar
     6    4   10       1
     7    5    6      ar
     8    5    8       1
     9    6    7       1
    10    8    9       2
    11    9   10       1
    12   10   11       1
    13   11   12       1
    14   11   21       1
    15   12   13       1
    16   12   14       1
    17   14   15       1
    18   14   20       1
    19   15   16       1
    20   16   17      ar
    21   16   18      ar
    22   16   19      ar
    23   20   21       1
    24   20   22       1
    25   22   23       1
    26   23   24       1
    27   24   25      ar
    28   24   26      ar
    29   24   27       1
    30   27   28       1
    31   28   29      ar
    32   28   30      ar
    33   28   31       1
    34   31   33       1
    35   32   33       1
    36   32   34       1
    37   32   35       1
    38   32   36       1
    39   36   37       1
    40   36   38       1
    41   38   39       2
    42   38   40      am
    43   40   41       1
    44   41   42       1
    45   42   43       1
    46   43   44       2
    47   43   45      am
    48   45   46       1
    49   46   47       1
    50   47   48       1
    51   48   49       1
    52   49   50       2
    53   49   51       1
    54    2   52       1
    55    7   53       1
    56    7   54       1
    57    9   55       1
    58   11   56       1
    59   12   57       1
    60   13   58       1
    61   14   59       1
    62   51   85       1
    63   51   84       1
    64   20   60       1
    65   22   61       1
    66   22   62       1
    67   51   83       1
    68   47   82       1
    69   33   63       1
    70   33   64       1
    71   34   65       1
    72   34   66       1
    73   34   67       1
    74   35   68       1
    75   35   69       1
    76   35   70       1
    77   36   71       1
    78   37   72       1
    79   40   73       1
    80   41   74       1
    81   41   75       1
    82   42   76       1
    83   42   77       1
    84   45   78       1
    85   46   79       1
    86   46   80       1
    87   47   81       1
@<TRIPOS>SUBSTRUCTURE
     1 ACO901      1 GROUP             4 B     ACO     0 **** ACO B 901
