@<TRIPOS>MOLECULE
3rdp_NMF_2_ligand
   31    31     1     0     0
SMALL
NO_CHARGES


@<TRIPOS>ATOM
     1 F           17.5350    38.1990    45.5000 F            1 NMF601   0.0000
     2 C1          22.4970    38.1650    44.9230 C.2          1 NMF601   0.0000
     3 N1          21.1080    38.0170    44.5110 N.pl3        1 NMF601   0.0000
     4 O1          22.9140    39.2780    45.2190 O.2          1 NMF601   0.0000
     5 C2          22.7540    35.8620    44.6130 C.2          1 NMF601   0.0000
     6 N2          23.3120    37.0220    44.9610 N.pl3        1 NMF601   0.0000
     7 O2          23.5300    34.7630    44.6560 O.2          1 NMF601   0.0000
     8 C3          21.4010    35.6630    44.2000 C.2          1 NMF601   0.0000
     9 O3          16.1710    34.8380    44.7080 O.3          1 NMF601   0.0000
    10 C4          20.9760    34.2810    43.8560 C.3          1 NMF601   0.0000
    11 C5          20.5870    36.7780    44.1580 C.2          1 NMF601   0.0000
    12 C6          20.3010    39.2460    44.4830 C.3          1 NMF601   0.0000
    13 C11         19.1590    36.6180    43.7250 C.3          1 NMF601   0.0000
    14 C12         18.1880    36.0430    44.7550 C.3          1 NMF601   0.0000
    15 C13         16.8050    35.9180    44.0840 C.3          1 NMF601   0.0000
    16 C14         17.9780    37.0040    45.9370 C.3          1 NMF601   0.0000
    17 H1          24.2715    37.0758    45.2377 H            1 NMF601   0.0000
    18 H2          15.5466    34.3993    44.0617 H            1 NMF601   0.0000
    19 H3          20.0132    34.2859    43.5859 H            1 NMF601   0.0000
    20 H4          21.5329    33.9397    43.0988 H            1 NMF601   0.0000
    21 H5          21.0959    33.6875    44.6519 H            1 NMF601   0.0000
    22 H6          19.3709    39.0274    44.1879 H            1 NMF601   0.0000
    23 H7          20.2745    39.6483    45.3981 H            1 NMF601   0.0000
    24 H8          20.7089    39.8981    43.8439 H            1 NMF601   0.0000
    25 H9          19.1500    36.0122    42.9294 H            1 NMF601   0.0000
    26 H10         18.8200    37.5208    43.4604 H            1 NMF601   0.0000
    27 H11         18.5046    35.1512    45.0781 H            1 NMF601   0.0000
    28 H12         16.2764    36.7562    44.2182 H            1 NMF601   0.0000
    29 H13         16.9082    35.7422    43.1050 H            1 NMF601   0.0000
    30 H14         17.3045    36.6124    46.5639 H            1 NMF601   0.0000
    31 H15         18.8462    37.1302    46.4169 H            1 NMF601   0.0000
@<TRIPOS>BOND
     1    1   16       1
     2    2    3       1
     3    2    4       2
     4    2    6       1
     5    3   11       1
     6    3   12       1
     7    5    6       1
     8    5    7       2
     9    5    8       1
    10    8   10       1
    11    8   11       2
    12    9   15       1
    13   11   13       1
    14   13   14       1
    15   14   15       1
    16   14   16       1
    17    6   17       1
    18    9   18       1
    19   10   19       1
    20   10   20       1
    21   10   21       1
    22   12   22       1
    23   12   23       1
    24   12   24       1
    25   13   25       1
    26   13   26       1
    27   14   27       1
    28   15   28       1
    29   15   29       1
    30   16   30       1
    31   16   31       1
@<TRIPOS>SUBSTRUCTURE
     1 NMF601      1 GROUP             4 B     NMF     0 **** NMF B 601
