@<TRIPOS>MOLECULE
3oe9_ITD_1_ligand
   61    64     1     0     0
SMALL
USER_CHARGES


@<TRIPOS>ATOM
     1 C1          15.4470     3.7400    25.0570 C.3          1 ITD1500   0.0000
     2 N1          17.8200     3.5740    25.5060 N.2          1 ITD1500   0.0000
     3 S1          19.8440     2.5750    27.2060 S.3          1 ITD1500   0.0000
     4 C2          16.6390     4.4110    25.7180 C.3          1 ITD1500   0.0000
     5 N2          17.6740     3.8620    27.6490 N.pl3        1 ITD1500   0.0000
     6 S2          18.0640     5.8780    30.1620 S.3          1 ITD1500   0.0000
     7 C3          16.8760     5.8240    25.2110 C.3          1 ITD1500   0.0000
     8 N3          19.8390     5.1220    31.6620 N.2          1 ITD1500   0.0000
     9 C4          18.3950     3.3540    26.6930 C.2          1 ITD1500   0.0000
    10 N4          20.6590     6.5190    29.9210 N.pl3        1 ITD1500   0.0000
    11 C5          19.4500     2.9640    28.8520 C.2          1 ITD1500   0.0000
    12 C6          16.4470     4.5190    27.2270 C.3          1 ITD1500   0.0000
    13 C7          18.2190     3.6700    28.8670 C.2          1 ITD1500   0.0000
    14 C8          17.5260     4.1960    30.0940 C.3          1 ITD1500   0.0000
    15 C9          19.6620     5.8710    30.5760 C.2          1 ITD1500   0.0000
    16 C10         21.0200     4.7950    32.3930 C.3          1 ITD1500   0.0000
    17 C11         21.6780     6.0250    33.0100 C.3          1 ITD1500   0.0000
    18 C12         22.8820     5.6050    33.8660 C.3          1 ITD1500   0.0000
    19 C13         23.8390     4.6660    33.1050 C.3          1 ITD1500   0.0000
    20 C14         23.1340     3.4560    32.4840 C.3          1 ITD1500   0.0000
    21 C15         21.9820     3.9110    31.5880 C.3          1 ITD1500   0.0000
    22 C16         20.7760     7.1080    28.5660 C.3          1 ITD1500   0.0000
    23 C17         19.9820     6.4790    27.4020 C.3          1 ITD1500   0.0000
    24 C18         20.0200     7.2670    26.0770 C.3          1 ITD1500   0.0000
    25 C19         20.0080     8.7960    26.2050 C.3          1 ITD1500   0.0000
    26 C20         21.0450     9.2870    27.2120 C.3          1 ITD1500   0.0000
    27 C21         20.8000     8.6470    28.5810 C.3          1 ITD1500   0.0000
    28 H1          14.6306     4.3011    25.1935 H            1 ITD1500   0.0000
    29 H2          15.6221     3.6389    24.0777 H            1 ITD1500   0.0000
    30 H3          15.3037     2.8382    25.4648 H            1 ITD1500   0.0000
    31 H4          17.6687     6.2168    25.6772 H            1 ITD1500   0.0000
    32 H5          17.0465     5.8005    24.2259 H            1 ITD1500   0.0000
    33 H6          16.0688     6.3844    25.3963 H            1 ITD1500   0.0000
    34 H7          19.9985     2.7298    29.6546 H            1 ITD1500   0.0000
    35 H8          15.6319     4.0308    27.5389 H            1 ITD1500   0.0000
    36 H9          16.4040     5.4697    27.5341 H            1 ITD1500   0.0000
    37 H10         16.5322     4.1399    29.9977 H            1 ITD1500   0.0000
    38 H11         17.8106     3.6941    30.9108 H            1 ITD1500   0.0000
    39 H12         20.7161     4.2344    33.1633 H            1 ITD1500   0.0000
    40 H13         21.0136     6.5023    33.5851 H            1 ITD1500   0.0000
    41 H14         21.9873     6.6356    32.2809 H            1 ITD1500   0.0000
    42 H15         22.5480     5.1323    34.6815 H            1 ITD1500   0.0000
    43 H16         23.3849     6.4252    34.1387 H            1 ITD1500   0.0000
    44 H17         24.5337     4.3353    33.7437 H            1 ITD1500   0.0000
    45 H18         24.2795     5.1866    32.3736 H            1 ITD1500   0.0000
    46 H19         22.7739     2.8745    33.2135 H            1 ITD1500   0.0000
    47 H20         23.7910     2.9368    31.9374 H            1 ITD1500   0.0000
    48 H21         22.3466     4.4328    30.8168 H            1 ITD1500   0.0000
    49 H22         21.4904     3.1102    31.2460 H            1 ITD1500   0.0000
    50 H23         21.7197     6.8856    28.3210 H            1 ITD1500   0.0000
    51 H24         19.0268     6.3995    27.6869 H            1 ITD1500   0.0000
    52 H25         20.3555     5.5674    27.2302 H            1 ITD1500   0.0000
    53 H26         19.2216     6.9985    25.5380 H            1 ITD1500   0.0000
    54 H27         20.8537     7.0070    25.5899 H            1 ITD1500   0.0000
    55 H28         19.1004     9.0888    26.5057 H            1 ITD1500   0.0000
    56 H29         20.2087     9.1975    25.3114 H            1 ITD1500   0.0000
    57 H30         20.9785    10.2813    27.2959 H            1 ITD1500   0.0000
    58 H31         21.9593     9.0399    26.8911 H            1 ITD1500   0.0000
    59 H32         21.5278     8.9428    29.1997 H            1 ITD1500   0.0000
    60 H33         19.9184     8.9706    28.9246 H            1 ITD1500   0.0000
    61 H34         21.4898     6.6203    30.4683 H            1 ITD1500   0.0000
@<TRIPOS>BOND
     1    1    4       1
     2    2    4       1
     3    2    9       2
     4    3    9       1
     5    3   11       1
     6    4    7       1
     7    4   12       1
     8    5    9       1
     9    5   12       1
    10    5   13       1
    11    6   14       1
    12    6   15       1
    13    8   15       2
    14    8   16       1
    15   10   15       1
    16   10   22       1
    17   11   13       2
    18   13   14       1
    19   16   17       1
    20   16   21       1
    21   17   18       1
    22   18   19       1
    23   19   20       1
    24   20   21       1
    25   22   23       1
    26   22   27       1
    27   23   24       1
    28   24   25       1
    29   25   26       1
    30   26   27       1
    31    1   28       1
    32    1   29       1
    33    1   30       1
    34    7   31       1
    35    7   32       1
    36    7   33       1
    37   27   60       1
    38   11   34       1
    39   12   35       1
    40   12   36       1
    41   14   37       1
    42   14   38       1
    43   16   39       1
    44   17   40       1
    45   17   41       1
    46   18   42       1
    47   18   43       1
    48   19   44       1
    49   19   45       1
    50   20   46       1
    51   20   47       1
    52   21   48       1
    53   21   49       1
    54   22   50       1
    55   23   51       1
    56   23   52       1
    57   24   53       1
    58   24   54       1
    59   25   55       1
    60   25   56       1
    61   26   57       1
    62   26   58       1
    63   27   59       1
    64   10   61       1
@<TRIPOS>SUBSTRUCTURE
     1 ITD1500     1 GROUP             4 A     ITD     0 **** ITD A1500
