@<TRIPOS>MOLECULE
2czc_NAD_4_ligand
   70    74     1     0     0
SMALL
NO_CHARGES


@<TRIPOS>ATOM
     1 PA          13.8160   -20.4150   -27.1440 P.3          1 NAD504   0.0000
     2 O1A         15.0940   -20.0670   -27.6010 O.co2        1 NAD504   0.0000
     3 O2A         13.0580   -19.1810   -26.9870 O.co2        1 NAD504  -1.0000
     4 O5B         12.8870   -20.8050   -28.2010 O.3          1 NAD504   0.0000
     5 C5B         12.0730   -21.8100   -27.9940 C.3          1 NAD504   0.0000
     6 C4B         11.4190   -22.1800   -29.2140 C.3          1 NAD504   0.0000
     7 O4B         10.1080   -22.6030   -29.3100 O.3          1 NAD504   0.0000
     8 C3B         11.5500   -21.3240   -30.3990 C.3          1 NAD504   0.0000
     9 O3B         12.2850   -21.7680   -31.4950 O.3          1 NAD504   0.0000
    10 C2B         10.1200   -20.9990   -30.6100 C.3          1 NAD504   0.0000
    11 O2B         10.1220   -20.2110   -31.7930 O.3          1 NAD504   0.0000
    12 C1B          9.5720   -22.4030   -30.6140 C.3          1 NAD504   0.0000
    13 N9A          8.2150   -22.4110   -30.1780 N.pl3        1 NAD504   0.0000
    14 C8A          7.4470   -21.4840   -29.7070 C.2          1 NAD504   0.0000
    15 N7A          6.1800   -21.8370   -29.8370 N.2          1 NAD504   0.0000
    16 C5A          6.1590   -23.0270   -30.3460 C.ar         1 NAD504   0.0000
    17 C6A          5.1790   -23.8580   -30.6730 C.ar         1 NAD504   0.0000
    18 N6A          3.9740   -23.5020   -30.4380 N.pl3        1 NAD504   0.0000
    19 N1A          5.5050   -25.0650   -31.1740 N.ar         1 NAD504   0.0000
    20 C2A          6.7430   -25.3030   -31.3330 C.ar         1 NAD504   0.0000
    21 N3A          7.7330   -24.5140   -31.0010 N.ar         1 NAD504   0.0000
    22 C4A          7.4160   -23.3430   -30.5000 C.ar         1 NAD504   0.0000
    23 O3          13.6810   -21.0700   -25.8150 O.3          1 NAD504   0.0000
    24 PN          14.9600   -21.8340   -25.3020 P.3          1 NAD504   0.0000
    25 O1N         15.5200   -22.6910   -26.3660 O.co2        1 NAD504   0.0000
    26 O2N         15.8750   -20.9240   -24.5830 O.co2        1 NAD504  -1.0000
    27 O5D         14.3230   -22.7600   -24.1550 O.3          1 NAD504   0.0000
    28 C5D         13.1680   -23.5500   -24.4360 C.3          1 NAD504   0.0000
    29 C4D         13.0410   -24.6250   -23.3520 C.3          1 NAD504   0.0000
    30 O4D         14.3450   -25.1070   -22.9570 O.3          1 NAD504   0.0000
    31 C3D         12.4050   -24.0470   -22.0870 C.3          1 NAD504   0.0000
    32 O3D         11.7130   -25.0250   -21.3050 O.3          1 NAD504   0.0000
    33 C2D         13.6420   -23.5560   -21.3420 C.3          1 NAD504   0.0000
    34 O2D         13.4290   -23.3680   -19.9370 O.3          1 NAD504   0.0000
    35 C1D         14.5830   -24.7310   -21.5810 C.3          1 NAD504   0.0000
    36 N1N         15.9280   -24.2690   -21.1620 N.ar         1 NAD504   1.0000
    37 C2N         16.4310   -23.1200   -21.7920 C.ar         1 NAD504   0.0000
    38 C3N         17.6960   -22.6460   -21.4560 C.ar         1 NAD504   0.0000
    39 C7N         18.3740   -21.4220   -22.0620 C.2          1 NAD504   0.0000
    40 O7N         19.5685   -20.9342   -21.6354 O.2          1 NAD504   0.0000
    41 N7N         17.7034   -20.8726   -23.0720 N.am         1 NAD504   0.0000
    42 C4N         18.4630   -23.2970   -20.5010 C.ar         1 NAD504   0.0000
    43 C5N         17.9610   -24.4280   -19.8700 C.ar         1 NAD504   0.0000
    44 C6N         16.6990   -24.9230   -20.1860 C.ar         1 NAD504   0.0000
    45 H5B1        11.3852   -21.5437   -27.3187 H            1 NAD504   0.0000
    46 H5B2        12.5940   -22.5908   -27.6491 H            1 NAD504   0.0000
    47 H4B         11.9259   -22.9978   -29.4864 H            1 NAD504   0.0000
    48 H3B         11.9879   -20.4799   -30.0896 H            1 NAD504   0.0000
    49 H5          12.2731   -21.0687   -32.2097 H            1 NAD504   0.0000
    50 H2B          9.7566   -20.4784   -29.8374 H            1 NAD504   0.0000
    51 H7           9.2603   -20.3431   -32.2830 H            1 NAD504   0.0000
    52 H1B          9.8458   -23.0248   -31.3478 H            1 NAD504   0.0000
    53 H8A          7.7648   -20.6259   -29.3036 H            1 NAD504   0.0000
    54 H6A1         3.2173   -24.1111   -30.6755 H            1 NAD504   0.0000
    55 H6A2         3.7880   -22.6144   -30.0167 H            1 NAD504   0.0000
    56 H2A          6.9843   -26.1781   -31.7525 H            1 NAD504   0.0000
    57 H5D1        13.2654   -23.9837   -25.3318 H            1 NAD504   0.0000
    58 H5D2        12.3534   -22.9699   -24.4333 H            1 NAD504   0.0000
    59 H4D         12.4877   -25.3853   -23.6922 H            1 NAD504   0.0000
    60 H3D         11.8011   -23.2824   -22.3123 H            1 NAD504   0.0000
    61 H17         10.9810   -25.4318   -21.8516 H            1 NAD504   0.0000
    62 H2D         14.0014   -22.7223   -21.7613 H            1 NAD504   0.0000
    63 H19         14.2752   -23.0471   -19.5116 H            1 NAD504   0.0000
    64 H1D         14.3060   -25.4884   -20.9897 H            1 NAD504   0.0000
    65 H2N         15.8828   -22.6438   -22.4795 H            1 NAD504   0.0000
    66 H7N1        18.0835   -20.0830   -23.5538 H            1 NAD504   0.0000
    67 H7N2        16.8195   -21.2494   -23.3490 H            1 NAD504   0.0000
    68 H4N         19.3729   -22.9538   -20.2680 H            1 NAD504   0.0000
    69 H5N         18.5141   -24.8932   -19.1789 H            1 NAD504   0.0000
    70 H6N         16.3447   -25.7356   -19.7233 H            1 NAD504   0.0000
@<TRIPOS>BOND
     1    1    2      ar
     2    1    3      ar
     3    1    4       1
     4    1   23       1
     5    4    5       1
     6    5    6       1
     7    6    7       1
     8    6    8       1
     9    7   12       1
    10    8    9       1
    11    8   10       1
    12   10   11       1
    13   10   12       1
    14   12   13       1
    15   13   14       1
    16   13   22       1
    17   14   15       2
    18   15   16       1
    19   16   17      ar
    20   16   22      ar
    21   17   18       1
    22   17   19      ar
    23   19   20      ar
    24   20   21      ar
    25   21   22      ar
    26   23   24       1
    27   24   25      ar
    28   24   26      ar
    29   24   27       1
    30   27   28       1
    31   28   29       1
    32   29   30       1
    33   29   31       1
    34   30   35       1
    35   31   32       1
    36   31   33       1
    37   33   34       1
    38   33   35       1
    39   35   36       1
    40   36   37      ar
    41   36   44      ar
    42   37   38      ar
    43   38   39       1
    44   38   42      ar
    45   39   40       2
    46   39   41      am
    47   42   43      ar
    48   43   44      ar
    49   44   70       1
    50    5   45       1
    51    5   46       1
    52    6   47       1
    53    8   48       1
    54    9   49       1
    55   10   50       1
    56   11   51       1
    57   12   52       1
    58   14   53       1
    59   18   54       1
    60   18   55       1
    61   20   56       1
    62   43   69       1
    63   28   57       1
    64   28   58       1
    65   29   59       1
    66   31   60       1
    67   32   61       1
    68   33   62       1
    69   34   63       1
    70   35   64       1
    71   37   65       1
    72   41   66       1
    73   41   67       1
    74   42   68       1
@<TRIPOS>SUBSTRUCTURE
     1 NAD504      1 GROUP             4 D     NAD     0 **** NAD D 504
