@<TRIPOS>MOLECULE
2zbv_ADN_2_ligand
   32    34     1     0     0
SMALL
NO_CHARGES


@<TRIPOS>ATOM
     1 O5'         38.3230    48.3860    19.8050 O.3          1 ADN502   0.0000
     2 C5'         38.4130    47.0670    20.3370 C.3          1 ADN502   0.0000
     3 C4'         39.6660    46.9610    21.2000 C.3          1 ADN502   0.0000
     4 O4'         39.6300    47.8730    22.3330 O.3          1 ADN502   0.0000
     5 C3'         39.8440    45.5470    21.7950 C.3          1 ADN502   0.0000
     6 O3'         40.6470    44.7410    20.9350 O.3          1 ADN502   0.0000
     7 C2'         40.4820    45.8040    23.1750 C.3          1 ADN502   0.0000
     8 O2'         41.7730    45.1790    23.2660 O.3          1 ADN502   0.0000
     9 C1'         40.5690    47.3360    23.3030 C.3          1 ADN502   0.0000
    10 N9          40.2090    47.7760    24.6720 N.pl3        1 ADN502   0.0000
    11 C8          38.9570    47.7070    25.2460 C.2          1 ADN502   0.0000
    12 N7          38.9880    48.1750    26.4630 N.2          1 ADN502   0.0000
    13 C5          40.2420    48.5720    26.7580 C.ar         1 ADN502   0.0000
    14 C6          40.8660    49.1420    27.8990 C.ar         1 ADN502   0.0000
    15 N6          40.1290    49.4040    29.0430 N.pl3        1 ADN502   0.0000
    16 N1          42.1890    49.4210    27.8460 N.ar         1 ADN502   0.0000
    17 C2          42.9200    49.1730    26.7400 C.ar         1 ADN502   0.0000
    18 N3          42.3700    48.6360    25.6430 N.ar         1 ADN502   0.0000
    19 C4          41.0520    48.3230    25.6090 C.ar         1 ADN502   0.0000
    20 H5'         38.2714    49.0452    20.5552 H            1 ADN502   0.0000
    21 H5'1        38.4656    46.4067    19.5878 H            1 ADN502   0.0000
    22 H5'2        37.6053    46.8750    20.8945 H            1 ADN502   0.0000
    23 H4'         40.4641    47.1769    20.6375 H            1 ADN502   0.0000
    24 H3'         38.9482    45.1190    21.9148 H            1 ADN502   0.0000
    25 H6          40.7523    43.8302    21.3342 H            1 ADN502   0.0000
    26 H2'         39.8850    45.4426    23.8912 H            1 ADN502   0.0000
    27 H8          41.6691    44.2494    23.6197 H            1 ADN502   0.0000
    28 H1'         41.4952    47.6417    23.0822 H            1 ADN502   0.0000
    29 H10         38.1406    47.3487    24.7931 H            1 ADN502   0.0000
    30 H11         40.5740    49.8055    29.8434 H            1 ADN502   0.0000
    31 H12         39.1522    49.1915    29.0680 H            1 ADN502   0.0000
    32 H13         43.8950    49.3951    26.7389 H            1 ADN502   0.0000
@<TRIPOS>BOND
     1    1    2       1
     2    2    3       1
     3    3    4       1
     4    3    5       1
     5    4    9       1
     6    5    6       1
     7    5    7       1
     8    7    8       1
     9    7    9       1
    10    9   10       1
    11   10   11       1
    12   10   19       1
    13   11   12       2
    14   12   13       1
    15   13   14      ar
    16   13   19      ar
    17   14   15       1
    18   14   16      ar
    19   16   17      ar
    20   17   18      ar
    21   18   19      ar
    22    1   20       1
    23    2   21       1
    24    2   22       1
    25    3   23       1
    26    5   24       1
    27    6   25       1
    28    7   26       1
    29    8   27       1
    30    9   28       1
    31   11   29       1
    32   15   30       1
    33   15   31       1
    34   17   32       1
@<TRIPOS>SUBSTRUCTURE
     1 ADN502      1 GROUP             4 B     ADN     0 **** ADN B 502
