@<TRIPOS>MOLECULE
5c3c_ADP_2_ligand
   39    41     1     0     0
SMALL
NO_CHARGES


@<TRIPOS>ATOM
     1 PB         235.4300   171.3720     1.2560 P.3          1 ADP301   0.0000
     2 O1B        235.7110   170.1110     2.0380 O.co2        1 ADP301   0.0000
     3 O2B        236.5990   171.9040     0.4620 O.co2        1 ADP301  -1.0000
     4 O3B        234.7030   172.4180     2.0680 O.co2        1 ADP301  -1.0000
     5 PA         233.0970   171.7510    -0.3320 P.3          1 ADP301   0.0000
     6 O1A        233.3740   173.2160    -0.1170 O.co2        1 ADP301   0.0000
     7 O2A        232.6930   171.3200    -1.7220 O.co2        1 ADP301  -1.0000
     8 O3A        234.3770   170.8850     0.1320 O.3          1 ADP301   0.0000
     9 O5'        231.9460   171.3200     0.7020 O.3          1 ADP301   0.0000
    10 C5'        231.2730   172.3420     1.4290 C.3          1 ADP301   0.0000
    11 C4'        229.7640   172.1920     1.3080 C.3          1 ADP301   0.0000
    12 O4'        229.1570   173.3160     1.9440 O.3          1 ADP301   0.0000
    13 C3'        229.3220   172.1910    -0.1470 C.3          1 ADP301   0.0000
    14 O3'        228.6470   170.9660    -0.4450 O.3          1 ADP301   0.0000
    15 C2'        228.3630   173.3530    -0.3070 C.3          1 ADP301   0.0000
    16 O2'        227.1020   172.8670    -0.7760 O.3          1 ADP301   0.0000
    17 C1'        228.2160   173.9550     1.0820 C.3          1 ADP301   0.0000
    18 N9         228.4820   175.4150     1.0550 N.pl3        1 ADP301   0.0000
    19 C8         228.1670   176.2720     0.0640 C.2          1 ADP301   0.0000
    20 N7         228.5440   177.5420     0.3730 N.2          1 ADP301   0.0000
    21 C5         229.1100   177.5060     1.5940 C.ar         1 ADP301   0.0000
    22 C6         229.7250   178.4870     2.5180 C.ar         1 ADP301   0.0000
    23 N6         229.8110   179.7970     2.1940 N.pl3        1 ADP301   0.0000
    24 N1         230.1940   178.0300     3.7010 N.ar         1 ADP301   0.0000
    25 C2         230.1150   176.7300     4.0420 C.ar         1 ADP301   0.0000
    26 N3         229.5750   175.7870     3.2530 N.ar         1 ADP301   0.0000
    27 C4         229.0600   176.1050     2.0410 C.ar         1 ADP301   0.0000
    28 H5'1       231.5433   173.2338     1.0662 H            1 ADP301   0.0000
    29 H5'2       231.5315   172.2821     2.3931 H            1 ADP301   0.0000
    30 H4'        229.4687   171.3473     1.7544 H            1 ADP301   0.0000
    31 H3'        230.1116   172.3074    -0.7495 H            1 ADP301   0.0000
    32 H5         229.1345   170.4856    -1.1741 H            1 ADP301   0.0000
    33 H2'        228.7356   174.0287    -0.9431 H            1 ADP301   0.0000
    34 H7         227.1483   171.8744    -0.8885 H            1 ADP301   0.0000
    35 H1'        227.2893   173.7911     1.4201 H            1 ADP301   0.0000
    36 H9         227.7147   176.0086    -0.7881 H            1 ADP301   0.0000
    37 H10        230.2299   180.4434     2.8318 H            1 ADP301   0.0000
    38 H11        229.4557   180.1194     1.3166 H            1 ADP301   0.0000
    39 H12        230.4782   176.4515     4.9311 H            1 ADP301   0.0000
@<TRIPOS>BOND
     1    1    2      ar
     2    1    3      ar
     3    1    4      ar
     4    1    8       1
     5    5    6      ar
     6    5    7      ar
     7    5    8       1
     8    5    9       1
     9    9   10       1
    10   10   11       1
    11   11   12       1
    12   11   13       1
    13   12   17       1
    14   13   14       1
    15   13   15       1
    16   15   16       1
    17   15   17       1
    18   17   18       1
    19   18   19       1
    20   18   27       1
    21   19   20       2
    22   20   21       1
    23   21   22      ar
    24   21   27      ar
    25   22   23       1
    26   22   24      ar
    27   24   25      ar
    28   25   26      ar
    29   26   27      ar
    30   25   39       1
    31   23   38       1
    32   23   37       1
    33   10   28       1
    34   10   29       1
    35   11   30       1
    36   13   31       1
    37   14   32       1
    38   15   33       1
    39   16   34       1
    40   17   35       1
    41   19   36       1
@<TRIPOS>SUBSTRUCTURE
     1 ADP301      1 GROUP             4 B     ADP     0 **** ADP B 301
