@<TRIPOS>MOLECULE
3clh_NAD_2_ligand
   70    74     1     0     0
SMALL
NO_CHARGES


@<TRIPOS>ATOM
     1 PA          -9.5010   -22.5420    19.1240 P.3          1 NAD401   0.0000
     2 O1A         -9.1550   -23.1930    20.4080 O.co2        1 NAD401   0.0000
     3 O2A         -9.3140   -21.0770    19.2140 O.co2        1 NAD401  -1.0000
     4 O5B        -11.0200   -22.8970    18.7160 O.3          1 NAD401   0.0000
     5 C5B        -11.6450   -22.2160    17.6480 C.3          1 NAD401   0.0000
     6 C4B        -12.9240   -21.5060    18.0930 C.3          1 NAD401   0.0000
     7 O4B        -13.9870   -22.4370    18.1970 O.3          1 NAD401   0.0000
     8 C3B        -12.7890   -20.8030    19.4400 C.3          1 NAD401   0.0000
     9 O3B        -12.9970   -19.4200    19.2740 O.3          1 NAD401   0.0000
    10 C2B        -13.8570   -21.4260    20.3240 C.3          1 NAD401   0.0000
    11 O2B        -14.6120   -20.4500    21.0020 O.3          1 NAD401   0.0000
    12 C1B        -14.7440   -22.2150    19.3710 C.3          1 NAD401   0.0000
    13 N9A        -15.1790   -23.5020    19.9530 N.pl3        1 NAD401   0.0000
    14 C8A        -14.4080   -24.3920    20.6550 C.2          1 NAD401   0.0000
    15 N7A        -15.1750   -25.4470    21.0080 N.2          1 NAD401   0.0000
    16 C5A        -16.4280   -25.2480    20.5480 C.ar         1 NAD401   0.0000
    17 C6A        -17.5930   -26.0090    20.6310 C.ar         1 NAD401   0.0000
    18 N6A        -17.5250   -27.2790    21.0170 N.pl3        1 NAD401   0.0000
    19 N1A        -18.7550   -25.5390    20.0460 N.ar         1 NAD401   0.0000
    20 C2A        -18.7580   -24.3240    19.3840 C.ar         1 NAD401   0.0000
    21 N3A        -17.5960   -23.5770    19.3070 N.ar         1 NAD401   0.0000
    22 C4A        -16.4470   -24.0280    19.8780 C.ar         1 NAD401   0.0000
    23 O3          -8.6190   -23.1550    17.9210 O.3          1 NAD401   0.0000
    24 PN          -8.1980   -24.7100    17.8460 P.3          1 NAD401   0.0000
    25 O1N         -9.0710   -25.5000    18.7430 O.co2        1 NAD401   0.0000
    26 O2N         -8.1040   -25.0870    16.4170 O.co2        1 NAD401  -1.0000
    27 O5D         -6.7110   -24.7060    18.4710 O.3          1 NAD401   0.0000
    28 C5D         -5.6450   -24.0390    17.8290 C.3          1 NAD401   0.0000
    29 C4D         -4.5400   -23.7440    18.8370 C.3          1 NAD401   0.0000
    30 O4D         -4.0090   -24.9510    19.3500 O.3          1 NAD401   0.0000
    31 C3D         -3.3950   -22.9720    18.1970 C.3          1 NAD401   0.0000
    32 O3D         -3.2710   -21.7120    18.8140 O.3          1 NAD401   0.0000
    33 C2D         -2.1530   -23.8150    18.4220 C.3          1 NAD401   0.0000
    34 O2D         -1.1110   -23.0650    19.0050 O.3          1 NAD401   0.0000
    35 C1D         -2.5930   -24.9320    19.3590 C.3          1 NAD401   0.0000
    36 N1N         -2.0480   -26.2430    18.9450 N.ar         1 NAD401   1.0000
    37 C2N         -1.1620   -26.8830    19.7730 C.ar         1 NAD401   0.0000
    38 C3N         -0.6280   -28.1230    19.4200 C.ar         1 NAD401   0.0000
    39 C7N          0.0860   -28.9430    20.4540 C.2          1 NAD401   0.0000
    40 O7N          1.3249   -29.5350    20.1335 O.2          1 NAD401   0.0000
    41 N7N         -0.4715   -29.0936    21.6546 N.am         1 NAD401   0.0000
    42 C4N         -1.0020   -28.7110    18.2130 C.ar         1 NAD401   0.0000
    43 C5N         -1.9040   -28.0570    17.3760 C.ar         1 NAD401   0.0000
    44 C6N         -2.4220   -26.8200    17.7560 C.ar         1 NAD401   0.0000
    45 H5B1       -11.8744   -22.8770    16.9335 H            1 NAD401   0.0000
    46 H5B2       -11.0091   -21.5366    17.2819 H            1 NAD401   0.0000
    47 H4B        -13.1655   -20.8245    17.4021 H            1 NAD401   0.0000
    48 H3B        -11.8819   -20.9706    19.8262 H            1 NAD401   0.0000
    49 H5         -12.9081   -18.9611    20.1580 H            1 NAD401   0.0000
    50 H2B        -13.4323   -22.0457    20.9840 H            1 NAD401   0.0000
    51 H7         -14.9281   -20.8204    21.8754 H            1 NAD401   0.0000
    52 H1B        -15.5498   -21.6682    19.1437 H            1 NAD401   0.0000
    53 H8A        -13.4380   -24.2791    20.8703 H            1 NAD401   0.0000
    54 H6A1       -18.3583   -27.8284    21.0779 H            1 NAD401   0.0000
    55 H6A2       -16.6405   -27.6851    21.2466 H            1 NAD401   0.0000
    56 H2A        -19.5991   -23.9862    18.9617 H            1 NAD401   0.0000
    57 H5D1        -5.9772   -23.1800    17.4394 H            1 NAD401   0.0000
    58 H5D2        -5.2825   -24.6181    17.0988 H            1 NAD401   0.0000
    59 H4D         -4.9181   -23.2057    19.5901 H            1 NAD401   0.0000
    60 H3D         -3.5614   -22.8600    17.2173 H            1 NAD401   0.0000
    61 H17         -4.1220   -21.1995    18.6994 H            1 NAD401   0.0000
    62 H2D         -1.8455   -24.2033    17.5533 H            1 NAD401   0.0000
    63 H19         -1.1867   -22.1101    18.7180 H            1 NAD401   0.0000
    64 H1D         -2.2758   -24.7248    20.2845 H            1 NAD401   0.0000
    65 H2N         -0.8960   -26.4572    20.6378 H            1 NAD401   0.0000
    66 H7N1        -0.0108   -29.6388    22.3549 H            1 NAD401   0.0000
    67 H7N2        -1.3507   -28.6615    21.8554 H            1 NAD401   0.0000
    68 H4N         -0.6246   -29.5985    17.9487 H            1 NAD401   0.0000
    69 H5N         -2.1778   -28.4724    16.5085 H            1 NAD401   0.0000
    70 H6N         -3.0709   -26.3490    17.1584 H            1 NAD401   0.0000
@<TRIPOS>BOND
     1    1    2      ar
     2    1    3      ar
     3    1    4       1
     4    1   23       1
     5    4    5       1
     6    5    6       1
     7    6    7       1
     8    6    8       1
     9    7   12       1
    10    8    9       1
    11    8   10       1
    12   10   11       1
    13   10   12       1
    14   12   13       1
    15   13   14       1
    16   13   22       1
    17   14   15       2
    18   15   16       1
    19   16   17      ar
    20   16   22      ar
    21   17   18       1
    22   17   19      ar
    23   19   20      ar
    24   20   21      ar
    25   21   22      ar
    26   23   24       1
    27   24   25      ar
    28   24   26      ar
    29   24   27       1
    30   27   28       1
    31   28   29       1
    32   29   30       1
    33   29   31       1
    34   30   35       1
    35   31   32       1
    36   31   33       1
    37   33   34       1
    38   33   35       1
    39   35   36       1
    40   36   37      ar
    41   36   44      ar
    42   37   38      ar
    43   38   39       1
    44   38   42      ar
    45   39   40       2
    46   39   41      am
    47   42   43      ar
    48   43   44      ar
    49   44   70       1
    50    5   45       1
    51    5   46       1
    52    6   47       1
    53    8   48       1
    54    9   49       1
    55   10   50       1
    56   11   51       1
    57   12   52       1
    58   14   53       1
    59   18   54       1
    60   18   55       1
    61   20   56       1
    62   43   69       1
    63   28   57       1
    64   28   58       1
    65   29   59       1
    66   31   60       1
    67   32   61       1
    68   33   62       1
    69   34   63       1
    70   35   64       1
    71   37   65       1
    72   41   66       1
    73   41   67       1
    74   42   68       1
@<TRIPOS>SUBSTRUCTURE
     1 NAD401      1 GROUP             4 B     NAD     0 **** NAD B 401
