@<TRIPOS>MOLECULE
4px9_ADP_3_ligand
   39    41     1     0     0
SMALL
NO_CHARGES


@<TRIPOS>ATOM
     1 PB          29.8880    22.6550    13.3050 P.3          1 ADP501   0.0000
     2 O1B         31.2780    23.1540    13.4380 O.co2        1 ADP501   0.0000
     3 O2B         29.2300    23.2930    11.9850 O.co2        1 ADP501  -1.0000
     4 O3B         29.0210    23.0820    14.5940 O.co2        1 ADP501  -1.0000
     5 PA          30.5330    20.3190    14.4680 P.3          1 ADP501   0.0000
     6 O1A         31.9640    20.7040    14.6050 O.co2        1 ADP501   0.0000
     7 O2A         29.7280    20.7380    15.8120 O.co2        1 ADP501  -1.0000
     8 O3A         29.8990    21.0400    13.1520 O.3          1 ADP501   0.0000
     9 O5'         30.4440    18.7200    14.2120 O.3          1 ADP501   0.0000
    10 C5'         30.9090    18.0300    15.3770 C.3          1 ADP501   0.0000
    11 C4'         30.8150    16.5220    15.1380 C.3          1 ADP501   0.0000
    12 O4'         31.7120    16.1430    14.0500 O.3          1 ADP501   0.0000
    13 C3'         31.2350    15.7480    16.3950 C.3          1 ADP501   0.0000
    14 O3'         30.1280    15.0080    16.9070 O.3          1 ADP501   0.0000
    15 C2'         32.3940    14.8400    15.9930 C.3          1 ADP501   0.0000
    16 O2'         32.0800    13.4540    16.2370 O.3          1 ADP501   0.0000
    17 C1'         32.6490    15.1160    14.5010 C.3          1 ADP501   0.0000
    18 N9          34.0630    15.5390    14.3140 N.pl3        1 ADP501   0.0000
    19 C8          34.6020    16.7870    14.5380 C.2          1 ADP501   0.0000
    20 N7          35.8810    16.7870    14.2710 N.2          1 ADP501   0.0000
    21 C5          36.2510    15.5460    13.8580 C.ar         1 ADP501   0.0000
    22 C6          37.4760    14.9320    13.4380 C.ar         1 ADP501   0.0000
    23 N6          38.6560    15.6510    13.3870 N.pl3        1 ADP501   0.0000
    24 N1          37.4610    13.6290    13.0870 N.ar         1 ADP501   0.0000
    25 C2          36.3360    12.9010    13.1260 C.ar         1 ADP501   0.0000
    26 N3          35.1730    13.4310    13.5130 N.ar         1 ADP501   0.0000
    27 C4          35.0850    14.7300    13.8820 C.ar         1 ADP501   0.0000
    28 H5'1        30.3429    18.2803    16.1624 H            1 ADP501   0.0000
    29 H5'2        31.8598    18.2816    15.5577 H            1 ADP501   0.0000
    30 H4'         29.8754    16.2804    14.8955 H            1 ADP501   0.0000
    31 H3'         31.5489    16.3945    17.0903 H            1 ADP501   0.0000
    32 H5          29.9284    15.3092    17.8394 H            1 ADP501   0.0000
    33 H2'         33.2070    15.0912    16.5183 H            1 ADP501   0.0000
    34 H7          31.1597    13.3835    16.6217 H            1 ADP501   0.0000
    35 H1'         32.4881    14.2767    13.9817 H            1 ADP501   0.0000
    36 H9          34.0867    17.5813    14.8598 H            1 ADP501   0.0000
    37 H10         39.5008    15.2051    13.0913 H            1 ADP501   0.0000
    38 H11         38.6646    16.6169    13.6458 H            1 ADP501   0.0000
    39 H12         36.3685    11.9379    12.8589 H            1 ADP501   0.0000
@<TRIPOS>BOND
     1    1    2      ar
     2    1    3      ar
     3    1    4      ar
     4    1    8       1
     5    5    6      ar
     6    5    7      ar
     7    5    8       1
     8    5    9       1
     9    9   10       1
    10   10   11       1
    11   11   12       1
    12   11   13       1
    13   12   17       1
    14   13   14       1
    15   13   15       1
    16   15   16       1
    17   15   17       1
    18   17   18       1
    19   18   19       1
    20   18   27       1
    21   19   20       2
    22   20   21       1
    23   21   22      ar
    24   21   27      ar
    25   22   23       1
    26   22   24      ar
    27   24   25      ar
    28   25   26      ar
    29   26   27      ar
    30   25   39       1
    31   23   38       1
    32   23   37       1
    33   10   28       1
    34   10   29       1
    35   11   30       1
    36   13   31       1
    37   14   32       1
    38   15   33       1
    39   16   34       1
    40   17   35       1
    41   19   36       1
@<TRIPOS>SUBSTRUCTURE
     1 ADP501      1 GROUP             4 C     ADP     0 **** ADP C 501
