@<TRIPOS>MOLECULE
3ufx_GDP_4_ligand
   40    42     1     0     0
SMALL
NO_CHARGES


@<TRIPOS>ATOM
     1 PB          13.4400     9.1160    73.0290 P.3          1 GDP398   0.0000
     2 O1B         12.7660     7.9810    72.2810 O.co2        1 GDP398   0.0000
     3 O2B         12.4310    10.2320    73.2410 O.co2        1 GDP398  -1.0000
     4 O3B         14.5930     9.5560    72.1550 O.co2        1 GDP398  -1.0000
     5 O3A         13.9190     8.6280    74.5030 O.3          1 GDP398   0.0000
     6 PA          15.1190     9.2370    75.4110 P.3          1 GDP398   0.0000
     7 O1A         15.9960     8.1240    75.9140 O.co2        1 GDP398   0.0000
     8 O2A         15.9430    10.3030    74.7360 O.co2        1 GDP398  -1.0000
     9 O5'         14.3580     9.9030    76.6630 O.3          1 GDP398   0.0000
    10 C5'         13.5430    11.0400    76.4120 C.3          1 GDP398   0.0000
    11 C4'         13.9430    12.1710    77.3440 C.3          1 GDP398   0.0000
    12 O4'         13.7910    11.7730    78.7120 O.3          1 GDP398   0.0000
    13 C3'         15.4100    12.5490    77.1710 C.3          1 GDP398   0.0000
    14 O3'         15.6350    13.4840    76.1000 O.3          1 GDP398   0.0000
    15 C2'         15.7830    13.0790    78.5520 C.3          1 GDP398   0.0000
    16 O2'         15.6620    14.5080    78.6700 O.3          1 GDP398   0.0000
    17 C1'         14.8240    12.3660    79.5040 C.3          1 GDP398   0.0000
    18 N9          15.6850    11.3500    80.1540 N.pl3        1 GDP398   0.0000
    19 C8          16.0600    10.1680    79.6320 C.2          1 GDP398   0.0000
    20 N7          16.8840     9.5040    80.4820 N.2          1 GDP398   0.0000
    21 C5          17.0590    10.2880    81.5640 C.2          1 GDP398   0.0000
    22 C6          17.7940    10.2100    82.8440 C.2          1 GDP398   0.0000
    23 O6          18.4940     9.2200    83.1190 O.2          1 GDP398   0.0000
    24 N1          17.7110    11.2420    83.6930 N.pl3        1 GDP398   0.0000
    25 C2          16.9720    12.3340    83.4250 C.2          1 GDP398   0.0000
    26 N2          16.9250    13.3410    84.3280 N.pl3        1 GDP398   0.0000
    27 N3          16.2630    12.4610    82.2810 N.2          1 GDP398   0.0000
    28 C4          16.2690    11.4960    81.3360 C.2          1 GDP398   0.0000
    29 H5'1        12.5842    10.8031    76.5688 H            1 GDP398   0.0000
    30 H5'2        13.6632    11.3325    75.4633 H            1 GDP398   0.0000
    31 H4'         13.3694    12.9701    77.1637 H            1 GDP398   0.0000
    32 H3'         15.9378    11.7190    76.9907 H            1 GDP398   0.0000
    33 H5          15.8008    12.9838    75.2501 H            1 GDP398   0.0000
    34 H2'         16.7217    12.8089    78.7663 H            1 GDP398   0.0000
    35 H7          16.5289    14.9379    78.4177 H            1 GDP398   0.0000
    36 H1'         14.4440    13.0011    80.1765 H            1 GDP398   0.0000
    37 H9          15.7707     9.8250    78.7384 H            1 GDP398   0.0000
    38 H10         18.2153    11.1998    84.5555 H            1 GDP398   0.0000
    39 H11         16.3789    14.1571    84.1389 H            1 GDP398   0.0000
    40 H12         17.4364    13.2690    85.1843 H            1 GDP398   0.0000
@<TRIPOS>BOND
     1    1    2      ar
     2    1    3      ar
     3    1    4      ar
     4    1    5       1
     5    5    6       1
     6    6    7      ar
     7    6    8      ar
     8    6    9       1
     9    9   10       1
    10   10   11       1
    11   11   12       1
    12   11   13       1
    13   12   17       1
    14   13   14       1
    15   13   15       1
    16   15   16       1
    17   15   17       1
    18   17   18       1
    19   18   19       1
    20   18   28       1
    21   19   20       2
    22   20   21       1
    23   21   22       1
    24   21   28       2
    25   22   23       2
    26   22   24       1
    27   24   25       1
    28   25   26       1
    29   25   27       2
    30   27   28       1
    31   26   40       1
    32   26   39       1
    33   24   38       1
    34   10   29       1
    35   10   30       1
    36   11   31       1
    37   13   32       1
    38   14   33       1
    39   15   34       1
    40   16   35       1
    41   17   36       1
    42   19   37       1
@<TRIPOS>SUBSTRUCTURE
     1 GDP398      1 GROUP             4 I     GDP     0 **** GDP I 398
