@<TRIPOS>MOLECULE
1ee0_CAA_2_ligand
   90    92     1     0     0
SMALL
NO_CHARGES


@<TRIPOS>ATOM
     1 N1A        -12.9440    23.4900    68.5900 N.ar         1 CAA700   0.0000
     2 C2A        -14.2610    23.0620    68.7190 C.ar         1 CAA700   0.0000
     3 N3A        -15.2940    23.5930    68.1020 N.ar         1 CAA700   0.0000
     4 C4A        -15.0880    24.9340    67.8690 C.ar         1 CAA700   0.0000
     5 C5A        -13.8320    25.5300    67.8090 C.ar         1 CAA700   0.0000
     6 C6A        -12.7070    24.7720    68.1670 C.ar         1 CAA700   0.0000
     7 N6A        -11.4440    25.2590    68.0540 N.pl3        1 CAA700   0.0000
     8 N7A        -13.8850    26.7810    67.1730 N.2          1 CAA700   0.0000
     9 C8A        -15.1920    26.8930    66.8320 C.2          1 CAA700   0.0000
    10 N9A        -15.9340    25.7580    67.1030 N.pl3        1 CAA700   0.0000
    11 C1B        -17.5650    25.6210    67.0190 C.3          1 CAA700   0.0000
    12 C2B        -18.5680    26.4100    67.7570 C.3          1 CAA700   0.0000
    13 O2B        -18.4600    25.7420    68.9390 O.3          1 CAA700   0.0000
    14 C3B        -19.6590    26.4900    66.6950 C.3          1 CAA700   0.0000
    15 O3B        -20.5670    25.3980    66.5470 O.3          1 CAA700   0.0000
    16 P3B        -22.1680    25.1970    66.5600 P.3          1 CAA700   0.0000
    17 O7A        -22.1880    23.5950    66.4480 O.co2        1 CAA700   0.0000
    18 O8A        -22.7610    25.8930    65.4010 O.co2        1 CAA700  -1.0000
    19 O9A        -22.7810    25.7330    67.8030 O.co2        1 CAA700  -1.0000
    20 C4B        -19.0260    26.4730    65.2460 C.3          1 CAA700   0.0000
    21 O4B        -17.6860    25.8230    65.5780 O.3          1 CAA700   0.0000
    22 C5B        -18.6540    27.9090    64.8050 C.3          1 CAA700   0.0000
    23 O5B        -18.5890    28.9140    66.0060 O.3          1 CAA700   0.0000
    24 P1A        -19.1710    30.0680    66.3470 P.3          1 CAA700   0.0000
    25 O1A        -20.6100    29.7910    66.0640 O.co2        1 CAA700   0.0000
    26 O2A        -18.8510    30.4530    67.7440 O.co2        1 CAA700  -1.0000
    27 O3A        -18.5150    31.0210    65.2740 O.3          1 CAA700   0.0000
    28 P2A        -17.2800    31.9920    65.0620 P.3          1 CAA700   0.0000
    29 O4A        -17.6790    33.3620    64.9150 O.co2        1 CAA700   0.0000
    30 O5A        -16.4710    31.7700    66.2930 O.co2        1 CAA700  -1.0000
    31 O6A        -16.6460    31.5790    63.7710 O.3          1 CAA700   0.0000
    32 CBP        -14.5420    30.3190    63.3720 C.3          1 CAA700   0.0000
    33 CCP        -16.0800    30.1920    63.7500 C.3          1 CAA700   0.0000
    34 CDP        -14.4890    30.8840    61.9360 C.3          1 CAA700   0.0000
    35 CEP        -13.8070    28.9850    63.4750 C.3          1 CAA700   0.0000
    36 CAP        -13.8880    31.2480    64.4220 C.3          1 CAA700   0.0000
    37 OAP        -14.1070    30.7290    65.7560 O.3          1 CAA700   0.0000
    38 C9P        -12.3430    31.2910    64.3320 C.2          1 CAA700   0.0000
    39 O9P        -11.8760    32.0450    63.4330 O.2          1 CAA700   0.0000
    40 N8P        -11.6240    30.5430    65.1530 N.am         1 CAA700   0.0000
    41 C7P        -10.5330    29.7540    64.3930 C.3          1 CAA700   0.0000
    42 C6P         -9.2280    30.2660    64.9070 C.3          1 CAA700   0.0000
    43 C5P         -8.1590    29.2250    64.5830 C.2          1 CAA700   0.0000
    44 O5P         -7.8930    28.7160    65.6820 O.2          1 CAA700   0.0000
    45 N4P         -7.2290    29.4550    63.6500 N.am         1 CAA700   0.0000
    46 C3P         -5.8120    29.0490    64.0480 C.3          1 CAA700   0.0000
    47 C2P         -5.2720    27.7100    63.5690 C.3          1 CAA700   0.0000
    48 S1P         -3.4970    27.7440    63.9580 S.3          1 CAA700   0.0000
    49 C1          -3.0480    26.1780    63.3660 C.2          1 CAA700   0.0000
    50 O1          -3.9370    25.3590    63.4160 O.2          1 CAA700   0.0000
    51 C2          -1.6420    25.7850    63.8200 C.3          1 CAA700   0.0000
    52 C3          -0.6440    25.7430    62.6640 C.2          1 CAA700   0.0000
    53 O3           0.4890    26.1370    62.8990 O.2          1 CAA700   0.0000
    54 C4          -0.7980    24.6340    61.6450 C.3          1 CAA700   0.0000
    55 H2A        -14.4364    22.2894    69.3292 H            1 CAA700   0.0000
    56 H6A1       -11.2961    26.1979    67.7432 H            1 CAA700   0.0000
    57 H6A2       -10.6621    24.6786    68.2816 H            1 CAA700   0.0000
    58 H8A        -15.5826    27.7179    66.4233 H            1 CAA700   0.0000
    59 H1B        -17.7784    24.6591    67.1899 H            1 CAA700   0.0000
    60 H2B        -18.1992    27.3301    67.8889 H            1 CAA700   0.0000
    61 H7         -18.6636    26.3653    69.6940 H            1 CAA700   0.0000
    62 H3B        -20.1779    27.3359    66.8183 H            1 CAA700   0.0000
    63 H4B        -19.5664    25.9685    64.5726 H            1 CAA700   0.0000
    64 H5B1       -19.3416    28.2320    64.1547 H            1 CAA700   0.0000
    65 H5B2       -17.7591    27.8849    64.3594 H            1 CAA700   0.0000
    66 HCP1       -16.5561    29.6378    63.0673 H            1 CAA700   0.0000
    67 HCP2       -16.1778    29.7682    64.6505 H            1 CAA700   0.0000
    68 HDP1       -13.5354    30.9825    61.6515 H            1 CAA700   0.0000
    69 HDP2       -14.9595    30.2581    61.3140 H            1 CAA700   0.0000
    70 HDP3       -14.9378    31.7773    61.9125 H            1 CAA700   0.0000
    71 HEP1       -12.8464    29.1138    63.2288 H            1 CAA700   0.0000
    72 HEP2       -13.8678    28.6424    64.4125 H            1 CAA700   0.0000
    73 HEP3       -14.2253    28.3249    62.8511 H            1 CAA700   0.0000
    74 HAP        -14.2633    32.1718    64.3459 H            1 CAA700   0.0000
    75 H21        -14.9578    31.1040    66.1241 H            1 CAA700   0.0000
    76 H8P        -11.7682    30.4941    66.1413 H            1 CAA700   0.0000
    77 H7P1       -10.6076    29.9163    63.4091 H            1 CAA700   0.0000
    78 H7P2       -10.6196    28.7749    64.5768 H            1 CAA700   0.0000
    79 H6P1        -9.2817    30.4022    65.8962 H            1 CAA700   0.0000
    80 H6P2        -9.0040    31.1335    64.4628 H            1 CAA700   0.0000
    81 H4P         -7.4446    29.8608    62.7618 H            1 CAA700   0.0000
    82 H3P1        -5.7789    29.0388    65.0474 H            1 CAA700   0.0000
    83 H3P2        -5.1953    29.7557    63.7012 H            1 CAA700   0.0000
    84 H2P1        -5.4131    27.6071    62.5844 H            1 CAA700   0.0000
    85 H2P2        -5.7220    26.9580    64.0506 H            1 CAA700   0.0000
    86 H32         -1.6827    24.8791    64.2416 H            1 CAA700   0.0000
    87 H33         -1.3244    26.4522    64.4937 H            1 CAA700   0.0000
    88 H34         -0.0870    24.7213    60.9473 H            1 CAA700   0.0000
    89 H35         -0.7108    23.7481    62.1007 H            1 CAA700   0.0000
    90 H36         -1.6979    24.7000    61.2139 H            1 CAA700   0.0000
@<TRIPOS>BOND
     1    1    2      ar
     2    1    6      ar
     3    2    3      ar
     4    3    4      ar
     5    4    5      ar
     6    4   10       1
     7    5    6      ar
     8    5    8       1
     9    6    7       1
    10    8    9       2
    11    9   10       1
    12   10   11       1
    13   11   12       1
    14   11   21       1
    15   12   13       1
    16   12   14       1
    17   14   15       1
    18   14   20       1
    19   15   16       1
    20   16   17      ar
    21   16   18      ar
    22   16   19      ar
    23   20   21       1
    24   20   22       1
    25   22   23       1
    26   23   24       1
    27   24   25      ar
    28   24   26      ar
    29   24   27       1
    30   27   28       1
    31   28   29      ar
    32   28   30      ar
    33   28   31       1
    34   31   33       1
    35   32   33       1
    36   32   34       1
    37   32   35       1
    38   32   36       1
    39   36   37       1
    40   36   38       1
    41   38   39       2
    42   38   40      am
    43   40   41       1
    44   41   42       1
    45   42   43       1
    46   43   44       2
    47   43   45      am
    48   45   46       1
    49   46   47       1
    50   47   48       1
    51   48   49       1
    52   49   50       2
    53   49   51       1
    54   51   52       1
    55   52   53       2
    56   52   54       1
    57    2   55       1
    58    7   56       1
    59    7   57       1
    60    9   58       1
    61   11   59       1
    62   12   60       1
    63   13   61       1
    64   14   62       1
    65   54   90       1
    66   54   89       1
    67   20   63       1
    68   22   64       1
    69   22   65       1
    70   54   88       1
    71   51   87       1
    72   33   66       1
    73   33   67       1
    74   34   68       1
    75   34   69       1
    76   34   70       1
    77   35   71       1
    78   35   72       1
    79   35   73       1
    80   36   74       1
    81   37   75       1
    82   40   76       1
    83   41   77       1
    84   41   78       1
    85   42   79       1
    86   42   80       1
    87   45   81       1
    88   46   82       1
    89   46   83       1
    90   47   84       1
    91   47   85       1
    92   51   86       1
@<TRIPOS>SUBSTRUCTURE
     1 CAA700      1 GROUP             4 B     CAA     0 **** CAA B 700
