@<TRIPOS>MOLECULE
4psb_GA3_1_ligand
   46    50     1     0     0
SMALL
NO_CHARGES


@<TRIPOS>ATOM
     1 O71          8.3730     0.3100    20.6800 O.co2        1 GA3201   0.0000
     2 C7           9.1680     0.5860    19.7500 C.2          1 GA3201   0.0000
     3 O72          8.8090     0.8830    18.5920 O.co2        1 GA3201  -1.0000
     4 C6          10.6670     0.6050    20.0080 C.3          1 GA3201   0.0000
     5 C5          11.5730     0.2580    18.8180 C.3          1 GA3201   0.0000
     6 C8          11.0670     2.0580    20.3640 C.3          1 GA3201   0.0000
     7 C15         10.1960     3.2130    19.8430 C.3          1 GA3201   0.0000
     8 C16         10.5780     4.3280    20.7710 C.2          1 GA3201   0.0000
     9 C17         10.4490     5.6250    20.5620 C.2          1 GA3201   0.0000
    10 C13         11.3450     3.7790    21.9620 C.3          1 GA3201   0.0000
    11 C14         11.0300     2.2750    21.8780 C.3          1 GA3201   0.0000
    12 O13         11.0740     4.4120    23.2290 O.3          1 GA3201   0.0000
    13 C12         12.8550     3.9470    21.7240 C.3          1 GA3201   0.0000
    14 C11         13.4190     2.6910    21.0560 C.3          1 GA3201   0.0000
    15 C9          12.5240     2.2820    19.8850 C.3          1 GA3201   0.0000
    16 C10         12.8810     0.9480    19.2520 C.3          1 GA3201   0.0000
    17 O92         13.3750    -0.0620    20.2330 O.3          1 GA3201   0.0000
    18 C1          13.9170     0.9280    18.1690 C.2          1 GA3201   0.0000
    19 C2          13.9880    -0.1540    17.3950 C.2          1 GA3201   0.0000
    20 C3          13.0150    -1.3060    17.4570 C.3          1 GA3201   0.0000
    21 O31         12.3110    -1.2980    16.2220 O.3          1 GA3201   0.0000
    22 C4          12.0640    -1.2080    18.6800 C.3          1 GA3201   0.0000
    23 C18         10.9890    -2.2950    18.6980 C.3          1 GA3201   0.0000
    24 C19         12.9440    -1.3110    19.9060 C.2          1 GA3201   0.0000
    25 O91         13.2400    -2.2680    20.5490 O.2          1 GA3201   0.0000
    26 H1          10.8808     0.0023    20.7768 H            1 GA3201   0.0000
    27 H2          11.2211     0.6221    17.9556 H            1 GA3201   0.0000
    28 H3           9.2225     2.9963    19.9155 H            1 GA3201   0.0000
    29 H4          10.4179     3.4370    18.8940 H            1 GA3201   0.0000
    30 H5          10.7425     6.2759    21.2621 H            1 GA3201   0.0000
    31 H6          10.0578     5.9566    19.7035 H            1 GA3201   0.0000
    32 H7          11.7238     1.7271    22.3453 H            1 GA3201   0.0000
    33 H8          10.1288     2.0660    22.2577 H            1 GA3201   0.0000
    34 H9          10.1329     4.7499    23.2382 H            1 GA3201   0.0000
    35 H10         13.3148     4.0917    22.6001 H            1 GA3201   0.0000
    36 H11         13.0115     4.7368    21.1310 H            1 GA3201   0.0000
    37 H12         13.4537     1.9470    21.7233 H            1 GA3201   0.0000
    38 H13         14.3414     2.8797    20.7190 H            1 GA3201   0.0000
    39 H14         12.5397     2.9978    19.1868 H            1 GA3201   0.0000
    40 H15         14.5351     1.7020    18.0318 H            1 GA3201   0.0000
    41 H16         14.7335    -0.2062    16.7306 H            1 GA3201   0.0000
    42 H17         13.5335    -2.1585    17.5233 H            1 GA3201   0.0000
    43 H18         12.9582    -1.4142    15.4686 H            1 GA3201   0.0000
    44 H19         11.4204    -3.1921    18.6026 H            1 GA3201   0.0000
    45 H20         10.4896    -2.2556    19.5635 H            1 GA3201   0.0000
    46 H21         10.3538    -2.1483    17.9397 H            1 GA3201   0.0000
@<TRIPOS>BOND
     1    1    2      ar
     2    2    3      ar
     3    2    4       1
     4    4    5       1
     5    4    6       1
     6    5   16       1
     7    5   22       1
     8    6    7       1
     9    6   11       1
    10    6   15       1
    11    7    8       1
    12    8    9       2
    13    8   10       1
    14   10   11       1
    15   10   12       1
    16   10   13       1
    17   13   14       1
    18   14   15       1
    19   15   16       1
    20   16   17       1
    21   16   18       1
    22   17   24       1
    23   18   19       2
    24   19   20       1
    25   20   21       1
    26   20   22       1
    27   22   23       1
    28   22   24       1
    29   24   25       2
    30   23   46       1
    31    4   26       1
    32    5   27       1
    33    7   28       1
    34    7   29       1
    35    9   30       1
    36    9   31       1
    37   11   32       1
    38   11   33       1
    39   12   34       1
    40   13   35       1
    41   13   36       1
    42   14   37       1
    43   14   38       1
    44   15   39       1
    45   18   40       1
    46   19   41       1
    47   20   42       1
    48   21   43       1
    49   23   44       1
    50   23   45       1
@<TRIPOS>SUBSTRUCTURE
     1 GA3201      1 GROUP             4 A     GA3     0 **** GA3 A 201
