@<TRIPOS>MOLECULE
1vf3_GDN_2_ligand
   50    50     1     0     0
SMALL
NO_CHARGES


@<TRIPOS>ATOM
     1 N1          19.7340    19.3650    19.5580 N.4          1 GDN3600   1.0000
     2 CA1         19.0710    20.3610    18.7860 C.3          1 GDN3600   0.0000
     3 C1          20.0330    21.5550    18.8040 C.2          1 GDN3600   0.0000
     4 O11         20.0030    22.3300    17.8630 O.co2        1 GDN3600   0.0000
     5 O12         20.7890    21.7080    19.7600 O.co2        1 GDN3600  -1.0000
     6 CB1         17.7200    20.6900    19.4340 C.3          1 GDN3600   0.0000
     7 CG1         16.9210    21.7260    18.6610 C.3          1 GDN3600   0.0000
     8 CD1         15.5850    22.0780    19.2610 C.2          1 GDN3600   0.0000
     9 OE1         15.1920    21.5550    20.3100 O.2          1 GDN3600   0.0000
    10 N2          14.9070    22.9670    18.5590 N.am         1 GDN3600   0.0000
    11 CA2         13.5870    23.4510    18.9410 C.3          1 GDN3600   0.0000
    12 C2          12.6140    23.0180    17.8920 C.2          1 GDN3600   0.0000
    13 O2          12.8540    23.3200    16.7250 O.2          1 GDN3600   0.0000
    14 CB2         13.5170    24.9640    19.0500 C.3          1 GDN3600   0.0000
    15 SG2         14.6430    25.7200    20.2470 S.3          1 GDN3600   0.0000
    16 N3          11.5560    22.3330    18.3200 N.am         1 GDN3600   0.0000
    17 CA3         10.5400    21.8590    17.4040 C.3          1 GDN3600   0.0000
    18 C3          10.3840    20.3640    17.4360 C.2          1 GDN3600   0.0000
    19 O31         10.9580    19.7010    18.2990 O.co2        1 GDN3600   0.0000
    20 O32          9.6290    19.8370    16.6310 O.co2        1 GDN3600  -1.0000
    21 C1'         13.9590    25.7580    21.7880 C.ar         1 GDN3600   0.0000
    22 C2'         14.7220    26.3220    22.8330 C.ar         1 GDN3600   0.0000
    23 C3'         14.1430    26.3480    24.1370 C.ar         1 GDN3600   0.0000
    24 C4'         12.8020    25.8040    24.3750 C.ar         1 GDN3600   0.0000
    25 C5'         12.0790    25.2430    23.2570 C.ar         1 GDN3600   0.0000
    26 C6'         12.6330    25.2110    21.9790 C.ar         1 GDN3600   0.0000
    27 N2'         16.0690    26.9030    22.7460 N.2          1 GDN3600   1.0000
    28 O2A         16.6530    26.9230    21.6390 O.co2        1 GDN3600   0.0000
    29 O2B         16.6060    27.3680    23.7890 O.co2        1 GDN3600  -1.0000
    30 N4'         12.2480    25.8380    25.6870 N.2          1 GDN3600   1.0000
    31 O4A         12.9030    26.3340    26.6550 O.co2        1 GDN3600   0.0000
    32 O4B         11.0910    25.3700    25.9140 O.co2        1 GDN3600  -1.0000
    33 H1          19.1675    18.5419    19.5975 H            1 GDN3600   0.0000
    34 H2          20.6126    19.1449    19.1343 H            1 GDN3600   0.0000
    35 HA1         18.9361    20.0394    17.8488 H            1 GDN3600   0.0000
    36 HB11        17.8866    21.0402    20.3557 H            1 GDN3600   0.0000
    37 HB12        17.1810    19.8495    19.4892 H            1 GDN3600   0.0000
    38 HG11        16.7633    21.3715    17.7393 H            1 GDN3600   0.0000
    39 HG12        17.4670    22.5621    18.6077 H            1 GDN3600   0.0000
    40 H8          15.3205    23.3265    17.7225 H            1 GDN3600   0.0000
    41 HA2         13.3284    23.0453    19.8177 H            1 GDN3600   0.0000
    42 HB21        12.5831    25.2100    19.3095 H            1 GDN3600   0.0000
    43 HB22        13.7245    25.3464    18.1496 H            1 GDN3600   0.0000
    44 H12         11.4607    22.1414    19.2968 H            1 GDN3600   0.0000
    45 HA31        10.7914    22.1349    16.4763 H            1 GDN3600   0.0000
    46 HA32         9.6660    22.2775    17.6509 H            1 GDN3600   0.0000
    47 H3'         14.6581    26.7421    24.8981 H            1 GDN3600   0.0000
    48 H5'         11.1627    24.8702    23.4034 H            1 GDN3600   0.0000
    49 H6'         12.1259    24.8190    21.2114 H            1 GDN3600   0.0000
    50 H18         19.8875    19.7087    20.4844 H            1 GDN3600   0.0000
@<TRIPOS>BOND
     1    1    2       1
     2    2    3       1
     3    2    6       1
     4    3    4      ar
     5    3    5      ar
     6    6    7       1
     7    7    8       1
     8    8    9       2
     9    8   10      am
    10   10   11       1
    11   11   12       1
    12   11   14       1
    13   12   13       2
    14   12   16      am
    15   14   15       1
    16   15   21       1
    17   16   17       1
    18   17   18       1
    19   18   19      ar
    20   18   20      ar
    21   21   22      ar
    22   21   26      ar
    23   22   23      ar
    24   22   27       1
    25   23   24      ar
    26   24   25      ar
    27   24   30       1
    28   25   26      ar
    29   27   28      ar
    30   27   29      ar
    31   30   31      ar
    32   30   32      ar
    33    1   33       1
    34    1   34       1
    35    2   35       1
    36    1   50       1
    37    6   36       1
    38    6   37       1
    39    7   38       1
    40    7   39       1
    41   10   40       1
    42   11   41       1
    43   14   42       1
    44   14   43       1
    45   16   44       1
    46   17   45       1
    47   17   46       1
    48   26   49       1
    49   23   47       1
    50   25   48       1
@<TRIPOS>SUBSTRUCTURE
     1 GDN3600     1 GROUP             4 B     GDN     0 **** GDN B3600
