@<TRIPOS>MOLECULE
1b48_HAG_1_ligand
   63    63     1     0     0
SMALL
NO_CHARGES


@<TRIPOS>ATOM
     1 C1          34.3580    16.8880    30.1630 C.2          1 HAG223   0.0000
     2 C2          32.4890    17.4790    36.0980 C.2          1 HAG223   0.0000
     3 C3          35.2570    17.5880    38.3290 C.2          1 HAG223   0.0000
     4 N1          35.1460    19.0510    29.0720 N.4          1 HAG223   1.0000
     5 CA1         35.2050    18.1420    30.3250 C.3          1 HAG223   0.0000
     6 O11         33.8920    16.0930    31.0610 O.co2        1 HAG223   0.0000
     7 O12         33.9660    16.4040    28.8980 O.co2        1 HAG223  -1.0000
     8 CB1         34.7330    19.1240    31.4630 C.3          1 HAG223   0.0000
     9 CG1         35.1600    18.4890    32.7700 C.3          1 HAG223   0.0000
    10 CD1         34.4300    19.0240    33.9620 C.2          1 HAG223   0.0000
    11 OE1         34.9140    19.7520    34.8830 O.2          1 HAG223   0.0000
    12 N2          33.1030    18.6700    34.0450 N.am         1 HAG223   0.0000
    13 CA2         32.4730    18.8820    35.3860 C.3          1 HAG223   0.0000
    14 O2          32.0340    16.6200    35.3440 O.2          1 HAG223   0.0000
    15 CB2         31.0200    19.4060    35.2060 C.3          1 HAG223   0.0000
    16 SG2         30.8010    20.5700    36.5340 S.3          1 HAG223   0.0000
    17 N3          32.9950    17.5150    37.3460 N.am         1 HAG223   0.0000
    18 CA3         34.1080    18.4100    37.7540 C.3          1 HAG223   0.0000
    19 O31         35.2680    17.2580    39.5730 O.co2        1 HAG223   0.0000
    20 O32         36.2170    17.2570    37.4510 O.co2        1 HAG223  -1.0000
    21 C41         31.2530    22.3010    36.2080 C.3          1 HAG223   0.0000
    22 C42         32.6530    22.5860    35.7730 C.3          1 HAG223   0.0000
    23 O42         33.5040    23.5860    33.5810 O.3          1 HAG223   0.0000
    24 C43         32.5900    22.5930    34.2230 C.3          1 HAG223   0.0000
    25 O43         31.2370    22.9170    33.9020 O.3          1 HAG223   0.0000
    26 C44         30.3200    22.7810    35.0550 C.3          1 HAG223   0.0000
    27 C45         29.7380    24.1870    35.4140 C.3          1 HAG223   0.0000
    28 C46         28.7690    24.7630    34.3050 C.3          1 HAG223   0.0000
    29 C47         27.8670    23.8980    33.3660 C.3          1 HAG223   0.0000
    30 C48         27.0810    22.7490    34.0020 C.3          1 HAG223   0.0000
    31 C49         26.5510    22.8470    35.4070 C.3          1 HAG223   0.0000
    32 H1          35.7142    19.8604    29.2203 H            1 HAG223   0.0000
    33 H2          35.4852    18.5466    28.2780 H            1 HAG223   0.0000
    34 HA1         36.1544    17.8770    30.4935 H            1 HAG223   0.0000
    35 HB11        33.7392    19.2319    31.4380 H            1 HAG223   0.0000
    36 HB12        35.1682    20.0176    31.3528 H            1 HAG223   0.0000
    37 HG11        36.1379    18.6547    32.8975 H            1 HAG223   0.0000
    38 HG12        34.9934    17.5047    32.7127 H            1 HAG223   0.0000
    39 H8          32.5968    18.2985    33.2667 H            1 HAG223   0.0000
    40 HA2         33.0097    19.5393    35.9151 H            1 HAG223   0.0000
    41 HB21        30.3620    18.6567    35.2802 H            1 HAG223   0.0000
    42 HB22        30.9136    19.8565    34.3196 H            1 HAG223   0.0000
    43 H12         32.6002    16.9067    38.0345 H            1 HAG223   0.0000
    44 HA31        34.4321    18.9194    36.9568 H            1 HAG223   0.0000
    45 HA32        33.7798    19.0507    38.4481 H            1 HAG223   0.0000
    46 H15         31.0557    22.8423    37.0253 H            1 HAG223   0.0000
    47 H16         33.2751    21.8734    36.0974 H            1 HAG223   0.0000
    48 H17         32.9554    23.4747    36.1177 H            1 HAG223   0.0000
    49 H18         33.4087    23.5327    32.5870 H            1 HAG223   0.0000
    50 H19         32.8016    21.6781    33.8792 H            1 HAG223   0.0000
    51 H20         29.5936    22.1189    34.8705 H            1 HAG223   0.0000
    52 H21         30.4990    24.8247    35.5333 H            1 HAG223   0.0000
    53 H22         29.2295    24.1107    36.2717 H            1 HAG223   0.0000
    54 H23         29.3514    25.3000    33.6948 H            1 HAG223   0.0000
    55 H24         28.1419    25.3729    34.7895 H            1 HAG223   0.0000
    56 H25         28.4586    23.5031    32.6631 H            1 HAG223   0.0000
    57 H26         27.2048    24.5127    32.9375 H            1 HAG223   0.0000
    58 H27         27.6818    21.9499    33.9814 H            1 HAG223   0.0000
    59 H28         26.2901    22.5867    33.4120 H            1 HAG223   0.0000
    60 H29         26.0689    22.0027    35.6410 H            1 HAG223   0.0000
    61 H30         27.3118    22.9833    36.0415 H            1 HAG223   0.0000
    62 H31         25.9201    23.6201    35.4721 H            1 HAG223   0.0000
    63 H32         34.2005    19.3328    28.9089 H            1 HAG223   0.0000
@<TRIPOS>BOND
     1    1    5       1
     2    1    6      ar
     3    1    7      ar
     4    2   13       1
     5    2   14       2
     6    2   17      am
     7    3   18       1
     8    3   19      ar
     9    3   20      ar
    10    4    5       1
    11    5    8       1
    12    8    9       1
    13    9   10       1
    14   10   11       2
    15   10   12      am
    16   12   13       1
    17   13   15       1
    18   15   16       1
    19   16   21       1
    20   17   18       1
    21   21   22       1
    22   21   26       1
    23   22   24       1
    24   23   24       1
    25   24   25       1
    26   25   26       1
    27   26   27       1
    28   27   28       1
    29   28   29       1
    30   29   30       1
    31   30   31       1
    32    4   32       1
    33    4   33       1
    34    5   34       1
    35    4   63       1
    36    8   35       1
    37    8   36       1
    38    9   37       1
    39    9   38       1
    40   12   39       1
    41   13   40       1
    42   15   41       1
    43   15   42       1
    44   17   43       1
    45   18   44       1
    46   18   45       1
    47   31   62       1
    48   21   46       1
    49   22   47       1
    50   22   48       1
    51   23   49       1
    52   24   50       1
    53   26   51       1
    54   27   52       1
    55   27   53       1
    56   28   54       1
    57   28   55       1
    58   29   56       1
    59   29   57       1
    60   30   58       1
    61   30   59       1
    62   31   60       1
    63   31   61       1
@<TRIPOS>SUBSTRUCTURE
     1 HAG223      1 GROUP             4 A     HAG     0 **** HAG A 223
