@<TRIPOS>MOLECULE
4irn_FAD_4_ligand
   84    89     1     0     0
SMALL
NO_CHARGES


@<TRIPOS>ATOM
     1 PA         -23.9060    90.8800   -76.3330 P.3          1 FAD400   0.0000
     2 O1A        -25.1870    90.2010   -76.6460 O.co2        1 FAD400   0.0000
     3 O2A        -23.8300    92.4090   -76.3560 O.co2        1 FAD400  -1.0000
     4 O5B        -23.3530    90.4090   -74.9100 O.3          1 FAD400   0.0000
     5 C5B        -22.9370    91.3540   -73.9010 C.3          1 FAD400   0.0000
     6 C4B        -22.0160    90.6060   -72.9760 C.3          1 FAD400   0.0000
     7 O4B        -22.7950    89.7650   -72.1120 O.3          1 FAD400   0.0000
     8 C3B        -20.9970    89.7270   -73.6990 C.3          1 FAD400   0.0000
     9 O3B        -19.6810    90.1460   -73.3700 O.3          1 FAD400   0.0000
    10 C2B        -21.2950    88.2880   -73.2540 C.3          1 FAD400   0.0000
    11 O2B        -20.1240    87.7210   -72.6870 O.3          1 FAD400   0.0000
    12 C1B        -22.3360    88.4270   -72.1400 C.3          1 FAD400   0.0000
    13 N9A        -23.4900    87.5370   -72.2860 N.pl3        1 FAD400   0.0000
    14 C8A        -24.5720    87.7110   -73.1100 C.2          1 FAD400   0.0000
    15 N7A        -25.4280    86.7170   -73.0870 N.2          1 FAD400   0.0000
    16 C5A        -24.8800    85.8290   -72.1770 C.ar         1 FAD400   0.0000
    17 C6A        -25.3080    84.5680   -71.6960 C.ar         1 FAD400   0.0000
    18 N6A        -26.4080    83.9450   -72.1230 N.pl3        1 FAD400   0.0000
    19 N1A        -24.5240    83.9420   -70.7920 N.ar         1 FAD400   0.0000
    20 C2A        -23.3940    84.5370   -70.4050 C.ar         1 FAD400   0.0000
    21 N3A        -22.8960    85.7160   -70.7860 N.ar         1 FAD400   0.0000
    22 C4A        -23.6840    86.3200   -71.6730 C.ar         1 FAD400   0.0000
    23 N1         -22.2000    89.4080   -86.9300 N.2          1 FAD400   0.0000
    24 C2         -22.8070    89.0520   -88.1200 C.2          1 FAD400   0.0000
    25 O2         -23.9670    88.6300   -88.1420 O.2          1 FAD400   0.0000
    26 N3         -22.1180    89.1840   -89.3100 N.pl3        1 FAD400   0.0000
    27 C4         -20.8390    89.6620   -89.4390 C.2          1 FAD400   0.0000
    28 O4         -20.3390    89.7490   -90.5550 O.2          1 FAD400   0.0000
    29 C4X        -20.1960    90.0450   -88.1720 C.2          1 FAD400   0.0000
    30 N5         -18.9740    90.5430   -88.2170 N.2          1 FAD400   0.0000
    31 C5X        -18.3960    90.9530   -87.0120 C.ar         1 FAD400   0.0000
    32 C6         -17.0980    91.4740   -87.0380 C.ar         1 FAD400   0.0000
    33 C7         -16.4570    91.8920   -85.8760 C.ar         1 FAD400   0.0000
    34 C7M        -15.0390    92.4030   -85.9510 C.3          1 FAD400   0.0000
    35 C8         -17.1410    91.8050   -84.6420 C.ar         1 FAD400   0.0000
    36 C8M        -16.4990    92.2420   -83.3490 C.3          1 FAD400   0.0000
    37 C9         -18.4340    91.2920   -84.6150 C.ar         1 FAD400   0.0000
    38 C9A        -19.0760    90.8540   -85.7750 C.ar         1 FAD400   0.0000
    39 N10        -20.3900    90.3110   -85.7790 N.pl3        1 FAD400   0.0000
    40 C10        -20.9620    89.8910   -86.9530 C.2          1 FAD400   0.0000
    41 C1'        -21.1630    90.2810   -84.5180 C.3          1 FAD400   0.0000
    42 C2'        -20.5040    89.3400   -83.5210 C.3          1 FAD400   0.0000
    43 O2'        -20.8140    87.9770   -83.8000 O.3          1 FAD400   0.0000
    44 C3'        -20.8800    89.7340   -82.0940 C.3          1 FAD400   0.0000
    45 O3'        -19.7190    90.2100   -81.4150 O.3          1 FAD400   0.0000
    46 C4'        -21.5350    88.6300   -81.2640 C.3          1 FAD400   0.0000
    47 O4'        -22.7740    88.2730   -81.8790 O.3          1 FAD400   0.0000
    48 C5'        -21.7060    89.0150   -79.8070 C.3          1 FAD400   0.0000
    49 O5'        -21.6210    90.4550   -79.7270 O.3          1 FAD400   0.0000
    50 P          -22.5410    91.3270   -78.7510 P.3          1 FAD400   0.0000
    51 O1P        -21.6510    92.1660   -77.9290 O.co2        1 FAD400   0.0000
    52 O2P        -23.6310    92.0150   -79.5750 O.co2        1 FAD400  -1.0000
    53 O3P        -23.1780    90.3780   -77.6210 O.3          1 FAD400   0.0000
    54 H5B1       -23.7310    91.6951   -73.3978 H            1 FAD400   0.0000
    55 H5B2       -22.4550    92.1217   -74.3233 H            1 FAD400   0.0000
    56 H4B        -21.5221    91.2693   -72.4138 H            1 FAD400   0.0000
    57 H3B        -21.1331    89.8042   -74.6867 H            1 FAD400   0.0000
    58 H5         -19.6815    91.1277   -73.1798 H            1 FAD400   0.0000
    59 H2B        -21.6406    87.7342   -74.0116 H            1 FAD400   0.0000
    60 H7         -19.3831    88.3922   -72.7116 H            1 FAD400   0.0000
    61 H1B        -21.8920    88.2273   -71.2665 H            1 FAD400   0.0000
    62 H8A        -24.6976    88.5240   -73.6785 H            1 FAD400   0.0000
    63 H6A1       -26.6573    83.0541   -71.7434 H            1 FAD400   0.0000
    64 H6A2       -26.9831    84.3690   -72.8226 H            1 FAD400   0.0000
    65 H2A        -22.8456    84.0312   -69.7391 H            1 FAD400   0.0000
    66 H13        -22.5910    88.9082   -90.1468 H            1 FAD400   0.0000
    67 H14        -16.6193    91.5478   -87.9129 H            1 FAD400   0.0000
    68 H7M1       -14.7286    92.6605   -85.0359 H            1 FAD400   0.0000
    69 H7M2       -14.4450    91.6856   -86.3149 H            1 FAD400   0.0000
    70 H7M3       -15.0038    93.2015   -86.5519 H            1 FAD400   0.0000
    71 H8M1       -17.1402    92.1021   -82.5945 H            1 FAD400   0.0000
    72 H8M2       -15.6724    91.7026   -83.1883 H            1 FAD400   0.0000
    73 H8M3       -16.2587    93.2110   -83.4069 H            1 FAD400   0.0000
    74 H21        -18.9167    91.2354   -83.7410 H            1 FAD400   0.0000
    75 H1'1       -22.0922    89.9637   -84.7075 H            1 FAD400   0.0000
    76 H1'2       -21.1979    91.2019   -84.1298 H            1 FAD400   0.0000
    77 H2'        -19.5142    89.4488   -83.6128 H            1 FAD400   0.0000
    78 H25        -21.6451    87.7168   -83.3085 H            1 FAD400   0.0000
    79 H3'        -21.5284    90.4932   -82.1515 H            1 FAD400   0.0000
    80 H27        -19.9622    90.4688   -80.4802 H            1 FAD400   0.0000
    81 H4'        -20.9372    87.8291   -81.2983 H            1 FAD400   0.0000
    82 H29        -23.3720    89.0738   -81.9134 H            1 FAD400   0.0000
    83 H5'1       -20.9823    88.5989   -79.2564 H            1 FAD400   0.0000
    84 H5'2       -22.5971    88.7063   -79.4744 H            1 FAD400   0.0000
@<TRIPOS>BOND
     1    1    2      ar
     2    1    3      ar
     3    1    4       1
     4    1   53       1
     5    4    5       1
     6    5    6       1
     7    6    7       1
     8    6    8       1
     9    7   12       1
    10    8    9       1
    11    8   10       1
    12   10   11       1
    13   10   12       1
    14   12   13       1
    15   13   14       1
    16   13   22       1
    17   14   15       2
    18   15   16       1
    19   16   17      ar
    20   16   22      ar
    21   17   18       1
    22   17   19      ar
    23   19   20      ar
    24   20   21      ar
    25   21   22      ar
    26   23   24       1
    27   23   40       2
    28   24   25       2
    29   24   26       1
    30   26   27       1
    31   27   28       2
    32   27   29       1
    33   29   30       2
    34   29   40       1
    35   30   31       1
    36   31   32      ar
    37   31   38      ar
    38   32   33      ar
    39   33   34       1
    40   33   35      ar
    41   35   36       1
    42   35   37      ar
    43   37   38      ar
    44   38   39       1
    45   39   40       1
    46   39   41       1
    47   41   42       1
    48   42   43       1
    49   42   44       1
    50   44   45       1
    51   44   46       1
    52   46   47       1
    53   46   48       1
    54   48   49       1
    55   49   50       1
    56   50   51      ar
    57   50   52      ar
    58   50   53       1
    59   48   84       1
    60    5   54       1
    61    5   55       1
    62    6   56       1
    63    8   57       1
    64    9   58       1
    65   10   59       1
    66   11   60       1
    67   12   61       1
    68   14   62       1
    69   18   63       1
    70   18   64       1
    71   20   65       1
    72   26   66       1
    73   32   67       1
    74   34   68       1
    75   34   69       1
    76   34   70       1
    77   36   71       1
    78   36   72       1
    79   36   73       1
    80   37   74       1
    81   41   75       1
    82   41   76       1
    83   42   77       1
    84   43   78       1
    85   44   79       1
    86   45   80       1
    87   46   81       1
    88   47   82       1
    89   48   83       1
@<TRIPOS>SUBSTRUCTURE
     1 FAD400      1 GROUP             4 D     FAD     0 **** FAD D 400
