@<TRIPOS>MOLECULE
1o1v_TCH_1_ligand
   79    82     1     0     0
SMALL
NO_CHARGES


@<TRIPOS>ATOM
     1 C1           3.0190    -8.0250    10.6070 C.3          1 TCH128   0.0000
     2 C2           4.2820    -7.6510     9.7960 C.3          1 TCH128   0.0000
     3 C3           5.5020    -7.6220    10.7480 C.3          1 TCH128   0.0000
     4 O3           6.6880    -7.2850    10.0130 O.3          1 TCH128   0.0000
     5 C4           5.2620    -6.6360    11.9210 C.3          1 TCH128   0.0000
     6 C5           3.9590    -6.9890    12.7050 C.3          1 TCH128   0.0000
     7 C6           3.7290    -6.0420    13.9180 C.3          1 TCH128   0.0000
     8 C7           3.2850    -4.6170    13.4930 C.3          1 TCH128   0.0000
     9 O7           4.3770    -3.8760    12.9280 O.3          1 TCH128   0.0000
    10 C8           2.0740    -4.6270    12.5190 C.3          1 TCH128   0.0000
    11 C9           2.2990    -5.6020    11.3220 C.3          1 TCH128   0.0000
    12 C10          2.6910    -7.0570    11.7900 C.3          1 TCH128   0.0000
    13 C11          1.0790    -5.4910    10.3520 C.3          1 TCH128   0.0000
    14 C12          0.8430    -4.0320     9.8430 C.3          1 TCH128   0.0000
    15 O12          1.9750    -3.6030     9.0640 O.3          1 TCH128   0.0000
    16 C13          0.6050    -3.0350    11.0230 C.3          1 TCH128   0.0000
    17 C14          1.8340    -3.1940    11.9660 C.3          1 TCH128   0.0000
    18 C15          1.6670    -2.0540    12.9910 C.3          1 TCH128   0.0000
    19 C16          1.0900    -0.9010    12.1210 C.3          1 TCH128   0.0000
    20 C17          0.7530    -1.5010    10.7170 C.3          1 TCH128   0.0000
    21 C18         -0.7800    -3.3070    11.7010 C.3          1 TCH128   0.0000
    22 C19          1.5290    -7.7520    12.5710 C.3          1 TCH128   0.0000
    23 C20         -0.3870    -0.7050     9.9940 C.3          1 TCH128   0.0000
    24 C21         -0.7070    -1.2400     8.5700 C.3          1 TCH128   0.0000
    25 C22         -0.0810     0.8300     9.9210 C.3          1 TCH128   0.0000
    26 C23          1.1670     1.2550     9.0950 C.3          1 TCH128   0.0000
    27 C24          1.3230     2.7550     9.2210 C.2          1 TCH128   0.0000
    28 N24          0.5040     3.5290     8.5560 N.am         1 TCH128   0.0000
    29 O24          2.1950     3.1880     9.9600 O.2          1 TCH128   0.0000
    30 C25          0.5580     4.9830     8.6720 C.3          1 TCH128   0.0000
    31 C26         -0.5670     5.4360     9.6290 C.3          1 TCH128   0.0000
    32 S26         -2.1820     5.1070     8.8990 S.o2         1 TCH128   0.0000
    33 O1S         -2.1380     6.0530     7.7340 O.co2        1 TCH128   0.0000
    34 O2S         -2.2130     3.7490     8.3930 O.co2        1 TCH128   0.0000
    35 O3S         -3.1980     5.5540     9.8310 O.co2        1 TCH128  -1.0000
    36 H1           3.1505    -8.9424    10.9827 H            1 TCH128   0.0000
    37 H2           2.2380    -8.0293     9.9825 H            1 TCH128   0.0000
    38 H3           4.1591    -6.7495     9.3809 H            1 TCH128   0.0000
    39 H4           4.4330    -8.3307     9.0782 H            1 TCH128   0.0000
    40 H5           5.6215    -8.5384    11.1301 H            1 TCH128   0.0000
    41 H6           6.4553    -7.1453     9.0505 H            1 TCH128   0.0000
    42 H7           5.1804    -5.7089    11.5551 H            1 TCH128   0.0000
    43 H8           6.0404    -6.6799    12.5472 H            1 TCH128   0.0000
    44 H9           4.0906    -7.9067    13.0798 H            1 TCH128   0.0000
    45 H10          4.5828    -5.9701    14.4336 H            1 TCH128   0.0000
    46 H11          3.0195    -6.4369    14.5016 H            1 TCH128   0.0000
    47 H12          2.9965    -4.1363    14.3210 H            1 TCH128   0.0000
    48 H13          5.2356    -4.1817    13.3395 H            1 TCH128   0.0000
    49 H14          1.2599    -4.9179    13.0216 H            1 TCH128   0.0000
    50 H15          3.0880    -5.2488    10.8192 H            1 TCH128   0.0000
    51 H16          0.2584    -5.7983    10.8338 H            1 TCH128   0.0000
    52 H17          1.2432    -6.0825     9.5626 H            1 TCH128   0.0000
    53 H18          0.0336    -4.0277     9.2557 H            1 TCH128   0.0000
    54 H19          2.3926    -4.3950     8.6186 H            1 TCH128   0.0000
    55 H20          2.6394    -2.9649    11.4193 H            1 TCH128   0.0000
    56 H21          2.5460    -1.7981    13.3933 H            1 TCH128   0.0000
    57 H22          1.0303    -2.3118    13.7177 H            1 TCH128   0.0000
    58 H23          1.7672    -0.1711    12.0275 H            1 TCH128   0.0000
    59 H24          0.2614    -0.5347    12.5444 H            1 TCH128   0.0000
    60 H25          1.5747    -1.3983    10.1564 H            1 TCH128   0.0000
    61 H26         -0.9158    -2.6614    12.4525 H            1 TCH128   0.0000
    62 H27         -1.5095    -3.1919    11.0268 H            1 TCH128   0.0000
    63 H28         -0.7992    -4.2414    12.0567 H            1 TCH128   0.0000
    64 H29          1.2642    -7.1836    13.3499 H            1 TCH128   0.0000
    65 H30          0.7438    -7.8716    11.9634 H            1 TCH128   0.0000
    66 H31          1.8356    -8.6454    12.8993 H            1 TCH128   0.0000
    67 H32         -1.2159    -0.8142    10.5427 H            1 TCH128   0.0000
    68 H33         -1.4390    -0.6922     8.1648 H            1 TCH128   0.0000
    69 H34          0.1114    -1.1775     7.9987 H            1 TCH128   0.0000
    70 H35         -0.9993    -2.1944     8.6304 H            1 TCH128   0.0000
    71 H36          0.0489     1.1579    10.8567 H            1 TCH128   0.0000
    72 H37         -0.8784     1.2791     9.5180 H            1 TCH128   0.0000
    73 H38          1.0390     1.0066     8.1348 H            1 TCH128   0.0000
    74 H39          1.9818     0.7980     9.4518 H            1 TCH128   0.0000
    75 H40         -0.1767     3.1136     7.9526 H            1 TCH128   0.0000
    76 H41          0.4246     5.3991     7.7725 H            1 TCH128   0.0000
    77 H42          1.4460     5.2601     9.0390 H            1 TCH128   0.0000
    78 H43         -0.4772     6.4168     9.8024 H            1 TCH128   0.0000
    79 H44         -0.4872     4.9363    10.4915 H            1 TCH128   0.0000
@<TRIPOS>BOND
     1    1    2       1
     2    1   12       1
     3    2    3       1
     4    3    4       1
     5    3    5       1
     6    5    6       1
     7    6    7       1
     8    6   12       1
     9    7    8       1
    10    8    9       1
    11    8   10       1
    12   10   11       1
    13   10   17       1
    14   11   12       1
    15   11   13       1
    16   12   22       1
    17   13   14       1
    18   14   15       1
    19   14   16       1
    20   16   17       1
    21   16   20       1
    22   16   21       1
    23   17   18       1
    24   18   19       1
    25   19   20       1
    26   20   23       1
    27   23   24       1
    28   23   25       1
    29   25   26       1
    30   26   27       1
    31   27   28      am
    32   27   29       2
    33   28   30       1
    34   30   31       1
    35   31   32       1
    36   32   33      ar
    37   32   34      ar
    38   32   35      ar
    39    1   36       1
    40    1   37       1
    41    2   38       1
    42    2   39       1
    43    3   40       1
    44    4   41       1
    45    5   42       1
    46    5   43       1
    47    6   44       1
    48    7   45       1
    49    7   46       1
    50    8   47       1
    51    9   48       1
    52   10   49       1
    53   11   50       1
    54   13   51       1
    55   13   52       1
    56   14   53       1
    57   15   54       1
    58   17   55       1
    59   18   56       1
    60   18   57       1
    61   19   58       1
    62   19   59       1
    63   20   60       1
    64   21   61       1
    65   21   62       1
    66   21   63       1
    67   22   64       1
    68   22   65       1
    69   22   66       1
    70   23   67       1
    71   24   68       1
    72   24   69       1
    73   24   70       1
    74   25   71       1
    75   25   72       1
    76   26   73       1
    77   26   74       1
    78   28   75       1
    79   30   76       1
    80   30   77       1
    81   31   78       1
    82   31   79       1
@<TRIPOS>SUBSTRUCTURE
     1 TCH128      1 GROUP             4 A     TCH     0 **** TCH A 128
