@<TRIPOS>MOLECULE
3mws_017_1_ligand
   75    78     1     0     0
SMALL
NO_CHARGES


@<TRIPOS>ATOM
     1 N1          10.5930    19.6670    -3.4200 N.pl3        1 017201   0.0000
     2 C2           9.9180    18.7050    -3.5810 C.ar         1 017201   0.0000
     3 C3           8.7220    18.6210    -2.8760 C.ar         1 017201   0.0000
     4 C4           7.9150    17.5180    -3.0410 C.ar         1 017201   0.0000
     5 C5           8.2320    16.4720    -3.8810 C.ar         1 017201   0.0000
     6 C6           9.4260    16.5700    -4.5760 C.ar         1 017201   0.0000
     7 C7          10.2640    17.6620    -4.4390 C.ar         1 017201   0.0000
     8 S8           7.1500    15.1020    -4.0350 S.o2         1 017201   0.0000
     9 O9           5.7670    15.6310    -3.9380 O.2          1 017201   0.0000
    10 O10          7.3960    14.4610    -5.3190 O.2          1 017201   0.0000
    11 N11          7.3420    14.0750    -2.7850 N.3          1 017201   0.0000
    12 C12          8.6620    13.5030    -2.6650 C.3          1 017201   0.0000
    13 C13          8.6730    12.0970    -2.0620 C.3          1 017201   0.0000
    14 C14          7.9510    11.1050    -2.9950 C.3          1 017201   0.0000
    15 C15         10.1640    11.6880    -1.9140 C.3          1 017201   0.0000
    16 C16          6.6310    14.3020    -1.5680 C.3          1 017201   0.0000
    17 C17          5.5670    13.2570    -1.2690 C.3          1 017201   0.0000
    18 O18          5.1240    13.3720     0.0870 O.3          1 017201   0.0000
    19 C19          4.3330    13.3510    -2.1480 C.3          1 017201   0.0000
    20 N20          3.5840    12.1120    -1.9260 N.am         1 017201   0.0000
    21 C21          3.4020    11.1340    -2.8090 C.2          1 017201   0.0000
    22 O22          3.8450    11.1500    -3.9940 O.2          1 017201   0.0000
    23 O23          2.6860    10.1290    -2.2760 O.3          1 017201   0.0000
    24 C24          2.2830     9.0770    -3.1360 C.3          1 017201   0.0000
    25 C25          2.2420     7.7730    -2.3240 C.3          1 017201   0.0000
    26 O26          1.0310     7.9300    -1.5580 O.3          1 017201   0.0000
    27 C27          0.0600     8.6150    -2.3560 C.3          1 017201   0.0000
    28 O28         -0.5700     9.6260    -1.5630 O.3          1 017201   0.0000
    29 C29         -0.2030    10.9050    -2.0860 C.3          1 017201   0.0000
    30 C30          0.2040    10.6590    -3.5430 C.3          1 017201   0.0000
    31 C31          0.8150     9.2680    -3.5060 C.3          1 017201   0.0000
    32 C32          3.4200    14.5560    -1.8690 C.3          1 017201   0.0000
    33 C33          0.9580    14.3410    -2.3600 C.ar         1 017201   0.0000
    34 C34         -0.1520    14.3050    -3.1960 C.ar         1 017201   0.0000
    35 C35          0.0510    14.3760    -4.5740 C.ar         1 017201   0.0000
    36 C36          1.3150    14.5710    -5.0960 C.ar         1 017201   0.0000
    37 C37          2.4210    14.6300    -4.2400 C.ar         1 017201   0.0000
    38 C38          2.2430    14.5210    -2.8690 C.ar         1 017201   0.0000
    39 H1          11.4589    19.7583    -3.9118 H            1 017201   0.0000
    40 H2          10.2962    20.3868    -2.7924 H            1 017201   0.0000
    41 H3           8.4506    19.3558    -2.2544 H            1 017201   0.0000
    42 H4           7.0583    17.4735    -2.5272 H            1 017201   0.0000
    43 H5           9.6899    15.8300    -5.1947 H            1 017201   0.0000
    44 H6          11.1190    17.7034    -4.9560 H            1 017201   0.0000
    45 H7           9.2127    14.1004    -2.0821 H            1 017201   0.0000
    46 H8           9.0703    13.4583    -3.5767 H            1 017201   0.0000
    47 H9           8.2306    12.1064    -1.1652 H            1 017201   0.0000
    48 H10          7.9668    10.1920    -2.5873 H            1 017201   0.0000
    49 H11          7.0030    11.3968    -3.1223 H            1 017201   0.0000
    50 H12          8.4147    11.0826    -3.8807 H            1 017201   0.0000
    51 H13         10.2204    10.7701    -1.5212 H            1 017201   0.0000
    52 H14         10.6019    11.6934    -2.8130 H            1 017201   0.0000
    53 H15         10.6296    12.3372    -1.3125 H            1 017201   0.0000
    54 H16          6.1864    15.1959    -1.6256 H            1 017201   0.0000
    55 H17          7.2892    14.3050    -0.8151 H            1 017201   0.0000
    56 H18          5.9724    12.3512    -1.3918 H            1 017201   0.0000
    57 H19          5.2011    14.3240     0.3832 H            1 017201   0.0000
    58 H20          4.6227    13.3832    -3.1046 H            1 017201   0.0000
    59 H21          3.1697    11.9896    -1.0241 H            1 017201   0.0000
    60 H22          2.8696     9.0021    -3.9424 H            1 017201   0.0000
    61 H23          3.0405     7.6919    -1.7275 H            1 017201   0.0000
    62 H24          2.1911     6.9741    -2.9232 H            1 017201   0.0000
    63 H25         -0.6207     7.9715    -2.7061 H            1 017201   0.0000
    64 H26          0.5642    11.2853    -1.5696 H            1 017201   0.0000
    65 H27         -0.9787    11.5346    -2.0427 H            1 017201   0.0000
    66 H28          0.8739    11.3364    -3.8470 H            1 017201   0.0000
    67 H29         -0.5929    10.6842    -4.1466 H            1 017201   0.0000
    68 H30          0.6150     8.7869    -4.3596 H            1 017201   0.0000
    69 H31          3.9363    15.4045    -1.9853 H            1 017201   0.0000
    70 H32          3.0697    14.5044    -0.9338 H            1 017201   0.0000
    71 H33          0.8321    14.2356    -1.3736 H            1 017201   0.0000
    72 H34         -1.0748    14.2299    -2.8181 H            1 017201   0.0000
    73 H35         -0.7293    14.2845    -5.1927 H            1 017201   0.0000
    74 H36          1.4396    14.6698    -6.0833 H            1 017201   0.0000
    75 H37          3.3393    14.7507    -4.6170 H            1 017201   0.0000
@<TRIPOS>BOND
     1    1    2       1
     2    2    3      ar
     3    2    7      ar
     4    3    4      ar
     5    4    5      ar
     6    5    6      ar
     7    5    8       1
     8    6    7      ar
     9    8    9       2
    10    8   10       2
    11    8   11       1
    12   11   12       1
    13   11   16       1
    14   12   13       1
    15   13   14       1
    16   13   15       1
    17   16   17       1
    18   17   18       1
    19   17   19       1
    20   19   20       1
    21   19   32       1
    22   20   21      am
    23   21   22       2
    24   21   23       1
    25   23   24       1
    26   24   25       1
    27   24   31       1
    28   25   26       1
    29   26   27       1
    30   27   28       1
    31   27   31       1
    32   28   29       1
    33   29   30       1
    34   30   31       1
    35   32   38       1
    36   33   34      ar
    37   33   38      ar
    38   34   35      ar
    39   35   36      ar
    40   36   37      ar
    41   37   38      ar
    42    1   39       1
    43    1   40       1
    44    3   41       1
    45    4   42       1
    46    6   43       1
    47    7   44       1
    48   12   45       1
    49   12   46       1
    50   13   47       1
    51   14   48       1
    52   14   49       1
    53   14   50       1
    54   15   51       1
    55   15   52       1
    56   15   53       1
    57   16   54       1
    58   16   55       1
    59   17   56       1
    60   18   57       1
    61   19   58       1
    62   20   59       1
    63   24   60       1
    64   25   61       1
    65   25   62       1
    66   27   63       1
    67   29   64       1
    68   29   65       1
    69   30   66       1
    70   30   67       1
    71   31   68       1
    72   32   69       1
    73   32   70       1
    74   33   71       1
    75   34   72       1
    76   35   73       1
    77   36   74       1
    78   37   75       1
@<TRIPOS>SUBSTRUCTURE
     1 017201      1 GROUP             4 B     017     0 **** 017 B 201
