@<TRIPOS>MOLECULE
1hna_GDN_1_ligand
   36    35     1     0     0
SMALL
NO_CHARGES


@<TRIPOS>ATOM
     1 N1           2.1620    19.9790    23.2520 N.4          1 GDN218   1.0000
     2 CA1          2.1630    19.9660    24.7110 C.3          1 GDN218   0.0000
     3 C1           1.1090    19.0180    25.2510 C.2          1 GDN218   0.0000
     4 O11          0.2100    18.6610    24.4750 O.co2        1 GDN218   0.0000
     5 O12          1.1990    18.6070    26.4220 O.co2        1 GDN218  -1.0000
     6 CB1          1.9250    21.3730    25.2370 C.3          1 GDN218   0.0000
     7 CG1          2.3420    21.5910    26.6730 C.3          1 GDN218   0.0000
     8 CD1          2.2330    23.0390    27.0710 C.2          1 GDN218   0.0000
     9 OE1          2.2470    23.9350    26.2250 O.2          1 GDN218   0.0000
    10 N2           2.0240    23.2680    28.3560 N.am         1 GDN218   0.0000
    11 CA2          1.8930    24.6180    28.8650 C.3          1 GDN218   0.0000
    12 C2           2.9070    24.8830    29.9850 C.2          1 GDN218   0.0000
    13 O2           2.6860    25.7300    30.8400 O.2          1 GDN218   0.0000
    14 CB2          0.4610    24.8430    29.3710 C.3          1 GDN218   0.0000
    15 SG2         -0.8450    24.7630    28.0960 S.3          1 GDN218   0.0000
    16 N3           4.0360    24.1930    29.9560 N.am         1 GDN218   0.0000
    17 CA3          5.0880    24.3380    30.9520 C.3          1 GDN218   0.0000
    18 C3           6.2790    25.0610    30.3620 C.2          1 GDN218   0.0000
    19 O31          6.1340    25.6890    29.2980 O.co2        1 GDN218   0.0000
    20 O32          7.3610    25.0100    30.9700 O.co2        1 GDN218  -1.0000
    21 H1           2.4560    20.8776    22.9265 H            1 GDN218   0.0000
    22 H2           2.7903    19.2793    22.9120 H            1 GDN218   0.0000
    23 HA1          3.0603    19.6564    25.0256 H            1 GDN218   0.0000
    24 HB11         0.9477    21.5717    25.1632 H            1 GDN218   0.0000
    25 HB12         2.4391    22.0108    24.6634 H            1 GDN218   0.0000
    26 HG11         3.2908    21.2951    26.7834 H            1 GDN218   0.0000
    27 HG12         1.7515    21.0460    27.2682 H            1 GDN218   0.0000
    28 H8           1.9551    22.4959    28.9878 H            1 GDN218   0.0000
    29 HA2          2.0703    25.2582    28.1175 H            1 GDN218   0.0000
    30 HB21         0.4226    25.7478    29.7950 H            1 GDN218   0.0000
    31 HB22         0.2637    24.1441    30.0584 H            1 GDN218   0.0000
    32 HG2         -0.5638    24.1358    27.3697 H            1 GDN218   0.0000
    33 H13          4.1735    23.5388    29.2122 H            1 GDN218   0.0000
    34 HA31         5.3740    23.4317    31.2631 H            1 GDN218   0.0000
    35 HA32         4.7366    24.8614    31.7283 H            1 GDN218   0.0000
    36 H16          1.2389    19.7890    22.9176 H            1 GDN218   0.0000
@<TRIPOS>BOND
     1    1    2       1
     2    2    3       1
     3    2    6       1
     4    3    4      ar
     5    3    5      ar
     6    6    7       1
     7    7    8       1
     8    8    9       2
     9    8   10      am
    10   10   11       1
    11   11   12       1
    12   11   14       1
    13   12   13       2
    14   12   16      am
    15   14   15       1
    16   16   17       1
    17   17   18       1
    18   18   19      ar
    19   18   20      ar
    20    1   21       1
    21    1   22       1
    22    2   23       1
    23    1   36       1
    24    6   24       1
    25    6   25       1
    26    7   26       1
    27    7   27       1
    28   10   28       1
    29   11   29       1
    30   14   30       1
    31   14   31       1
    32   15   32       1
    33   16   33       1
    34   17   34       1
    35   17   35       1
@<TRIPOS>SUBSTRUCTURE
     1 GDN218      1 GROUP             4 A     GDN     0 **** GDN A 218
