@<TRIPOS>MOLECULE
2e7z_MGD_1_ligand
   69    74     1     0     0
SMALL
NO_CHARGES


@<TRIPOS>ATOM
     1 PB          45.6540    78.2250    28.4860 P.3          1 MGD801   0.0000
     2 O1B         44.5220    77.5490    29.2190 O.co2        1 MGD801   0.0000
     3 O2B         45.4420    79.5510    27.8530 O.co2        1 MGD801  -1.0000
     4 O3B         46.2380    77.2870    27.3230 O.3          1 MGD801   0.0000
     5 O3A         45.6310    74.8820    26.9260 O.3          1 MGD801   0.0000
     6 PA          46.8770    75.8130    27.3540 P.3          1 MGD801   0.0000
     7 O1A         47.9450    75.8370    26.3020 O.co2        1 MGD801   0.0000
     8 O2A         47.2150    75.4040    28.7560 O.co2        1 MGD801  -1.0000
     9 O5'         46.8600    78.3320    29.5510 O.3          1 MGD801   0.0000
    10 C5'         48.1810    78.5350    29.0790 C.3          1 MGD801   0.0000
    11 C4'         48.8940    79.3380    30.1490 C.3          1 MGD801   0.0000
    12 O4'         50.2970    79.2940    29.8470 O.3          1 MGD801   0.0000
    13 C3'         48.5600    80.8260    30.1250 C.3          1 MGD801   0.0000
    14 O3'         48.0870    81.2170    31.4250 O.3          1 MGD801   0.0000
    15 C2'         49.8620    81.5610    29.7420 C.3          1 MGD801   0.0000
    16 O2'         50.0800    82.8430    30.3640 O.3          1 MGD801   0.0000
    17 C1'         50.8940    80.5640    30.1960 C.3          1 MGD801   0.0000
    18 N9          52.1760    80.5730    29.4750 N.pl3        1 MGD801   0.0000
    19 C8          52.3780    80.7520    28.1460 C.2          1 MGD801   0.0000
    20 N7          53.6740    80.5920    27.8340 N.2          1 MGD801   0.0000
    21 C5          54.3050    80.2310    28.9730 C.2          1 MGD801   0.0000
    22 C6          55.6630    79.9010    29.3700 C.2          1 MGD801   0.0000
    23 O6          56.5960    79.8870    28.5400 O.2          1 MGD801   0.0000
    24 N1          55.8420    79.5750    30.6610 N.2          1 MGD801   0.0000
    25 C2          54.9070    79.6270    31.6040 C.2          1 MGD801   0.0000
    26 N2          55.2320    79.2700    32.8800 N.pl3        1 MGD801   0.0000
    27 N3          53.6450    79.9290    31.3140 N.pl3        1 MGD801   0.0000
    28 C4          53.3200    80.2210    30.0380 C.2          1 MGD801   0.0000
    29 C10         45.3850    74.7000    25.5310 C.3          1 MGD801   0.0000
    30 C11         44.4340    73.5290    25.4070 C.3          1 MGD801   0.0000
    31 O11         43.2020    73.9730    25.9720 O.3          1 MGD801   0.0000
    32 C12         44.2600    73.1520    23.9560 C.2          1 MGD801   0.0000
    33 S12         45.6620    72.8420    23.0270 S.2          1 MGD801   0.0000
    34 C13         43.0360    73.0040    23.4230 C.2          1 MGD801   0.0000
    35 S13         42.8000    72.7040    21.7630 S.2          1 MGD801   0.0000
    36 C14         41.7790    73.1110    24.2300 C.3          1 MGD801   0.0000
    37 N15         41.0210    74.3110    23.9110 N.pl3        1 MGD801   0.0000
    38 C16         39.9290    74.5020    24.7060 C.2          1 MGD801   0.0000
    39 C17         38.6860    75.1480    24.2630 C.2          1 MGD801   0.0000
    40 O17         38.5670    75.5550    23.0860 O.2          1 MGD801   0.0000
    41 N18         37.6890    75.2710    25.1620 N.pl3        1 MGD801   0.0000
    42 C19         37.7800    74.8300    26.4420 C.2          1 MGD801   0.0000
    43 N19         36.7480    74.9900    27.2970 N.pl3        1 MGD801   0.0000
    44 N20         38.8950    74.2570    26.9130 N.2          1 MGD801   0.0000
    45 C21         39.9510    74.0630    26.1130 C.2          1 MGD801   0.0000
    46 N22         41.0410    73.4600    26.5940 N.pl3        1 MGD801   0.0000
    47 C23         42.1310    73.0670    25.7260 C.3          1 MGD801   0.0000
    48 H5'1        48.1670    79.0417    28.2170 H            1 MGD801   0.0000
    49 H5'2        48.6389    77.6566    28.9420 H            1 MGD801   0.0000
    50 H4'         48.7170    78.9524    31.0545 H            1 MGD801   0.0000
    51 H3'         47.8547    81.0048    29.4390 H            1 MGD801   0.0000
    52 H5          48.7983    81.0408    32.1054 H            1 MGD801   0.0000
    53 H2'         49.9089    81.6603    28.7480 H            1 MGD801   0.0000
    54 H7          50.1103    82.7308    31.3572 H            1 MGD801   0.0000
    55 H1'         51.0407    80.6286    31.1831 H            1 MGD801   0.0000
    56 H9          51.6588    80.9733    27.4874 H            1 MGD801   0.0000
    57 H10         54.5394    79.3039    33.6005 H            1 MGD801   0.0000
    58 H11         56.1629    78.9744    33.0948 H            1 MGD801   0.0000
    59 H12         46.2406    74.5014    25.0531 H            1 MGD801   0.0000
    60 H13         44.9703    75.5234    25.1437 H            1 MGD801   0.0000
    61 H14         44.7848    72.7478    25.9233 H            1 MGD801   0.0000
    62 H15         41.2072    72.3175    24.0216 H            1 MGD801   0.0000
    63 H16         41.2771    74.9387    23.1759 H            1 MGD801   0.0000
    64 H17         36.8389    75.7097    24.8706 H            1 MGD801   0.0000
    65 H18         36.8234    74.6620    28.2387 H            1 MGD801   0.0000
    66 H19         35.9080    75.4365    26.9888 H            1 MGD801   0.0000
    67 H20         41.1058    73.2759    27.5748 H            1 MGD801   0.0000
    68 H21         42.4235    72.1414    25.9664 H            1 MGD801   0.0000
    69 H22         52.9478    79.9395    32.0308 H            1 MGD801   0.0000
@<TRIPOS>BOND
     1    1    2      ar
     2    1    3      ar
     3    1    4       1
     4    1    9       1
     5    4    6       1
     6    5    6       1
     7    5   29       1
     8    6    7      ar
     9    6    8      ar
    10    9   10       1
    11   10   11       1
    12   11   12       1
    13   11   13       1
    14   12   17       1
    15   13   14       1
    16   13   15       1
    17   15   16       1
    18   15   17       1
    19   17   18       1
    20   18   19       1
    21   18   28       1
    22   19   20       2
    23   20   21       1
    24   21   22       1
    25   21   28       2
    26   22   23       2
    27   22   24       1
    28   24   25       2
    29   25   26       1
    30   25   27       1
    31   27   28       1
    32   29   30       1
    33   30   31       1
    34   30   32       1
    35   31   47       1
    36   32   33       2
    37   32   34       1
    38   34   35       2
    39   34   36       1
    40   36   37       1
    41   36   47       1
    42   37   38       1
    43   38   39       1
    44   38   45       2
    45   39   40       2
    46   39   41       1
    47   41   42       1
    48   42   43       1
    49   42   44       2
    50   44   45       1
    51   45   46       1
    52   46   47       1
    53   47   68       1
    54   46   67       1
    55   10   48       1
    56   10   49       1
    57   11   50       1
    58   13   51       1
    59   14   52       1
    60   15   53       1
    61   16   54       1
    62   17   55       1
    63   19   56       1
    64   43   66       1
    65   26   57       1
    66   26   58       1
    67   29   59       1
    68   29   60       1
    69   30   61       1
    70   36   62       1
    71   37   63       1
    72   41   64       1
    73   43   65       1
    74   27   69       1
@<TRIPOS>SUBSTRUCTURE
     1 MGD801      1 GROUP             4 A     MGD     0 **** MGD A 801
