@<TRIPOS>MOLECULE
2fna_ADP_1_ligand
   39    41     1     0     0
SMALL
NO_CHARGES


@<TRIPOS>ATOM
     1 PB           4.6540    50.5740    50.8100 P.3          1 ADP500   0.0000
     2 O1B          4.8350    50.2770    49.3560 O.co2        1 ADP500   0.0000
     3 O2B          4.2050    49.3410    51.5880 O.co2        1 ADP500  -1.0000
     4 O3B          3.9150    51.8230    51.1560 O.co2        1 ADP500  -1.0000
     5 PA           6.8250    51.8640    52.3420 P.3          1 ADP500   0.0000
     6 O1A          7.0240    53.2310    51.7710 O.co2        1 ADP500   0.0000
     7 O2A          6.0070    51.8870    53.5650 O.co2        1 ADP500  -1.0000
     8 O3A          6.2290    50.7510    51.3160 O.3          1 ADP500   0.0000
     9 O5'          8.2740    51.2320    52.4990 O.3          1 ADP500   0.0000
    10 C5'          8.5070    49.9960    53.1960 C.3          1 ADP500   0.0000
    11 C4'          9.8260    50.0740    53.9610 C.3          1 ADP500   0.0000
    12 O4'         10.9400    49.9850    53.0930 O.3          1 ADP500   0.0000
    13 C3'         10.0340    51.3470    54.7210 C.3          1 ADP500   0.0000
    14 O3'         10.8920    51.0380    55.8400 O.3          1 ADP500   0.0000
    15 C2'         10.8120    52.2270    53.7680 C.3          1 ADP500   0.0000
    16 O2'         11.6130    53.1900    54.4370 O.3          1 ADP500   0.0000
    17 C1'         11.6740    51.1960    53.0950 C.3          1 ADP500   0.0000
    18 N9          12.0050    51.4610    51.6990 N.pl3        1 ADP500   0.0000
    19 C8          11.3040    51.0330    50.6270 C.2          1 ADP500   0.0000
    20 N7          11.9200    51.3880    49.5000 N.2          1 ADP500   0.0000
    21 C5          13.0310    52.0800    49.8480 C.ar         1 ADP500   0.0000
    22 C6          14.1530    52.7460    49.1510 C.ar         1 ADP500   0.0000
    23 N6          14.1970    52.7750    47.8030 N.pl3        1 ADP500   0.0000
    24 N1          15.1370    53.3230    49.8980 N.ar         1 ADP500   0.0000
    25 C2          15.1220    53.2960    51.2440 C.ar         1 ADP500   0.0000
    26 N3          14.1400    52.7030    51.9440 N.ar         1 ADP500   0.0000
    27 C4          13.1040    52.0930    51.3040 C.ar         1 ADP500   0.0000
    28 H5'1         8.5498    49.2458    52.5362 H            1 ADP500   0.0000
    29 H5'2         7.7593    49.8317    53.8394 H            1 ADP500   0.0000
    30 H4'          9.8644    49.3102    54.6054 H            1 ADP500   0.0000
    31 H3'          9.1716    51.7648    55.0068 H            1 ADP500   0.0000
    32 H5          10.7421    50.0908    56.1234 H            1 ADP500   0.0000
    33 H2'         10.2014    52.6665    53.1092 H            1 ADP500   0.0000
    34 H7          11.1805    53.4394    55.3035 H            1 ADP500   0.0000
    35 H1'         12.5167    51.0734    53.6192 H            1 ADP500   0.0000
    36 H9          10.4453    50.5226    50.6725 H            1 ADP500   0.0000
    37 H10         14.9579    53.2267    47.3372 H            1 ADP500   0.0000
    38 H11         13.4687    52.3448    47.2696 H            1 ADP500   0.0000
    39 H12         15.8704    53.7341    51.7420 H            1 ADP500   0.0000
@<TRIPOS>BOND
     1    1    2      ar
     2    1    3      ar
     3    1    4      ar
     4    1    8       1
     5    5    6      ar
     6    5    7      ar
     7    5    8       1
     8    5    9       1
     9    9   10       1
    10   10   11       1
    11   11   12       1
    12   11   13       1
    13   12   17       1
    14   13   14       1
    15   13   15       1
    16   15   16       1
    17   15   17       1
    18   17   18       1
    19   18   19       1
    20   18   27       1
    21   19   20       2
    22   20   21       1
    23   21   22      ar
    24   21   27      ar
    25   22   23       1
    26   22   24      ar
    27   24   25      ar
    28   25   26      ar
    29   26   27      ar
    30   25   39       1
    31   23   38       1
    32   23   37       1
    33   10   28       1
    34   10   29       1
    35   11   30       1
    36   13   31       1
    37   14   32       1
    38   15   33       1
    39   16   34       1
    40   17   35       1
    41   19   36       1
@<TRIPOS>SUBSTRUCTURE
     1 ADP500      1 GROUP             4 A     ADP     0 **** ADP A 500
