@<TRIPOS>MOLECULE
3cxi_VIT_2_ligand
   81    82     1     0     0
SMALL
NO_CHARGES


@<TRIPOS>ATOM
     1 C1          21.3740    49.2160    20.7770 C.3          1 VIT311   0.0000
     2 C2          27.2140    38.5810    17.0670 C.ar         1 VIT311   0.0000
     3 C3          25.7610    39.1310    16.9440 C.ar         1 VIT311   0.0000
     4 C4          24.9100    39.1150    18.1680 C.ar         1 VIT311   0.0000
     5 C5          25.3560    38.6280    19.5020 C.ar         1 VIT311   0.0000
     6 C6          26.8070    38.0780    19.6610 C.ar         1 VIT311   0.0000
     7 C7          27.7260    38.0610    18.4190 C.ar         1 VIT311   0.0000
     8 C8          28.1660    38.5410    15.8740 C.3          1 VIT311   0.0000
     9 O1          23.4730    39.6420    17.9610 O.3          1 VIT311   0.0000
    10 C9          22.7880    40.1410    16.6640 C.3          1 VIT311   0.0000
    11 C10         25.1250    39.7220    15.5630 C.3          1 VIT311   0.0000
    12 C11         23.5650    40.3470    15.4870 C.3          1 VIT311   0.0000
    13 C12         24.3710    38.6770    20.6550 C.3          1 VIT311   0.0000
    14 C13         27.3540    37.5540    20.9860 C.3          1 VIT311   0.0000
    15 O2          29.0170    37.5760    18.5230 O.3          1 VIT311   0.0000
    16 C14         21.7110    39.2100    16.3820 C.3          1 VIT311   0.0000
    17 C15         22.1820    41.5930    16.7000 C.3          1 VIT311   0.0000
    18 C16         21.1870    41.9010    17.8800 C.3          1 VIT311   0.0000
    19 C17         21.0390    43.4120    18.1640 C.3          1 VIT311   0.0000
    20 C18         21.5920    44.0060    19.5390 C.3          1 VIT311   0.0000
    21 C19         23.0370    44.3190    19.4240 C.3          1 VIT311   0.0000
    22 C20         20.7850    45.2130    19.8050 C.3          1 VIT311   0.0000
    23 C21         20.7580    46.2180    20.9170 C.3          1 VIT311   0.0000
    24 C22         19.9220    47.3200    20.1550 C.3          1 VIT311   0.0000
    25 C23         19.9120    48.8160    20.5720 C.3          1 VIT311   0.0000
    26 C24         19.2950    49.7560    19.4230 C.3          1 VIT311   0.0000
    27 C25         18.5770    51.1430    19.7480 C.3          1 VIT311   0.0000
    28 C26         19.4830    52.4040    19.9870 C.3          1 VIT311   0.0000
    29 C27         19.0950    53.9110    19.5120 C.3          1 VIT311   0.0000
    30 C28         20.1770    54.8890    19.9440 C.3          1 VIT311   0.0000
    31 C29         19.0370    54.1300    18.0210 C.3          1 VIT311   0.0000
    32 H1          21.4217    50.1773    21.0484 H            1 VIT311   0.0000
    33 H2          21.7780    48.6470    21.4933 H            1 VIT311   0.0000
    34 H3          21.8782    49.0852    19.9234 H            1 VIT311   0.0000
    35 H4          29.0432    38.1556    16.1603 H            1 VIT311   0.0000
    36 H5          27.7719    37.9724    15.1520 H            1 VIT311   0.0000
    37 H6          28.3064    39.4688    15.5284 H            1 VIT311   0.0000
    38 H7          25.1585    38.9751    14.8989 H            1 VIT311   0.0000
    39 H8          25.7346    40.4578    15.2681 H            1 VIT311   0.0000
    40 H9          23.6305    41.3315    15.3243 H            1 VIT311   0.0000
    41 H10         23.0917    39.9132    14.7203 H            1 VIT311   0.0000
    42 H11         24.8071    38.3205    21.4813 H            1 VIT311   0.0000
    43 H12         24.0861    39.6229    20.8100 H            1 VIT311   0.0000
    44 H13         23.5707    38.1198    20.4336 H            1 VIT311   0.0000
    45 H14         28.2993    37.2530    20.8606 H            1 VIT311   0.0000
    46 H15         27.3241    38.2825    21.6704 H            1 VIT311   0.0000
    47 H16         26.7969    36.7832    21.2951 H            1 VIT311   0.0000
    48 H17         29.3544    37.2366    19.4010 H            1 VIT311   0.0000
    49 H18         21.2362    39.4921    15.5483 H            1 VIT311   0.0000
    50 H19         22.0880    38.2923    16.2566 H            1 VIT311   0.0000
    51 H20         21.0667    39.2041    17.1468 H            1 VIT311   0.0000
    52 H21         21.6917    41.7405    15.8410 H            1 VIT311   0.0000
    53 H22         22.9422    42.2394    16.7652 H            1 VIT311   0.0000
    54 H23         21.5251    41.4526    18.7074 H            1 VIT311   0.0000
    55 H24         20.2883    41.5314    17.6440 H            1 VIT311   0.0000
    56 H25         20.0618    43.6214    18.1277 H            1 VIT311   0.0000
    57 H26         21.5111    43.8951    17.4266 H            1 VIT311   0.0000
    58 H27         21.4508    43.3406    20.2720 H            1 VIT311   0.0000
    59 H28         23.3679    44.6895    20.2919 H            1 VIT311   0.0000
    60 H29         23.5423    43.4847    19.2035 H            1 VIT311   0.0000
    61 H30         23.1752    44.9939    18.6991 H            1 VIT311   0.0000
    62 H31         19.8471    44.8665    19.7898 H            1 VIT311   0.0000
    63 H32         20.9454    45.7761    18.9944 H            1 VIT311   0.0000
    64 H33         21.6722    46.5362    21.1681 H            1 VIT311   0.0000
    65 H34         20.2888    45.8760    21.7312 H            1 VIT311   0.0000
    66 H35         18.9696    47.0176    20.1925 H            1 VIT311   0.0000
    67 H36         20.2407    47.3007    19.2074 H            1 VIT311   0.0000
    68 H37         19.4007    48.9325    21.4234 H            1 VIT311   0.0000
    69 H38         18.6188    49.1989    18.9410 H            1 VIT311   0.0000
    70 H39         20.0506    49.9720    18.8047 H            1 VIT311   0.0000
    71 H40         18.0305    51.0085    20.5746 H            1 VIT311   0.0000
    72 H41         17.9727    51.3524    18.9793 H            1 VIT311   0.0000
    73 H42         20.3558    52.1975    19.5448 H            1 VIT311   0.0000
    74 H43         19.6153    52.4582    20.9767 H            1 VIT311   0.0000
    75 H44         18.2225    54.1760    19.9224 H            1 VIT311   0.0000
    76 H45         19.9299    55.8116    19.6479 H            1 VIT311   0.0000
    77 H46         20.2644    54.8708    20.9400 H            1 VIT311   0.0000
    78 H47         21.0480    54.6275    19.5281 H            1 VIT311   0.0000
    79 H48         18.7922    55.0812    17.8331 H            1 VIT311   0.0000
    80 H49         19.9309    53.9303    17.6197 H            1 VIT311   0.0000
    81 H50         18.3494    53.5237    17.6215 H            1 VIT311   0.0000
@<TRIPOS>BOND
     1    1   25       1
     2    2    3      ar
     3    2    7      ar
     4    2    8       1
     5    3    4      ar
     6    3   11       1
     7    4    5      ar
     8    4    9       1
     9    5    6      ar
    10    5   13       1
    11    6    7      ar
    12    6   14       1
    13    7   15       1
    14    9   10       1
    15   10   12       1
    16   10   16       1
    17   10   17       1
    18   11   12       1
    19   17   18       1
    20   18   19       1
    21   19   20       1
    22   20   21       1
    23   20   22       1
    24   22   23       1
    25   23   24       1
    26   24   25       1
    27   25   26       1
    28   26   27       1
    29   27   28       1
    30   28   29       1
    31   29   30       1
    32   29   31       1
    33    1   32       1
    34    1   33       1
    35    1   34       1
    36    8   35       1
    37    8   36       1
    38    8   37       1
    39   11   38       1
    40   11   39       1
    41   12   40       1
    42   12   41       1
    43   13   42       1
    44   13   43       1
    45   13   44       1
    46   14   45       1
    47   14   46       1
    48   14   47       1
    49   15   48       1
    50   16   49       1
    51   16   50       1
    52   16   51       1
    53   17   52       1
    54   17   53       1
    55   18   54       1
    56   18   55       1
    57   19   56       1
    58   19   57       1
    59   20   58       1
    60   21   59       1
    61   21   60       1
    62   21   61       1
    63   22   62       1
    64   22   63       1
    65   23   64       1
    66   23   65       1
    67   24   66       1
    68   24   67       1
    69   25   68       1
    70   26   69       1
    71   26   70       1
    72   27   71       1
    73   27   72       1
    74   28   73       1
    75   28   74       1
    76   29   75       1
    77   30   76       1
    78   30   77       1
    79   30   78       1
    80   31   79       1
    81   31   80       1
    82   31   81       1
@<TRIPOS>SUBSTRUCTURE
     1 VIT311      1 GROUP             4 B     VIT     0 **** VIT B 311
