@<TRIPOS>MOLECULE
3bnk_FMN_2_ligand
   50    52     1     0     0
SMALL
NO_CHARGES


@<TRIPOS>ATOM
     1 N1           4.0240    -9.0770    18.1290 N.2          1 FMN1001   0.0000
     2 C2           3.2650    -8.1400    18.8020 C.2          1 FMN1001   0.0000
     3 O2           3.4420    -7.9870    20.0050 O.2          1 FMN1001   0.0000
     4 N3           2.3270    -7.3790    18.1250 N.pl3        1 FMN1001   0.0000
     5 C4           2.1560    -7.5720    16.7640 C.2          1 FMN1001   0.0000
     6 O4           1.3160    -6.9040    16.1720 O.2          1 FMN1001   0.0000
     7 C4A          2.9230    -8.5250    16.0820 C.2          1 FMN1001   0.0000
     8 N5           2.7520    -8.7340    14.7200 N.2          1 FMN1001   0.0000
     9 C5A          3.5210    -9.6610    14.0420 C.ar         1 FMN1001   0.0000
    10 C6           3.3360    -9.8190    12.6630 C.ar         1 FMN1001   0.0000
    11 C7           4.1010   -10.7610    11.9590 C.ar         1 FMN1001   0.0000
    12 C7M          3.9520   -10.8310    10.4690 C.3          1 FMN1001   0.0000
    13 C8           5.0530   -11.5350    12.6390 C.ar         1 FMN1001   0.0000
    14 C8M          6.0580   -12.3760    11.8810 C.3          1 FMN1001   0.0000
    15 C9           5.2410   -11.3540    14.0160 C.ar         1 FMN1001   0.0000
    16 C9A          4.4880   -10.4170    14.7260 C.ar         1 FMN1001   0.0000
    17 N10          4.6660   -10.2220    16.1010 N.pl3        1 FMN1001   0.0000
    18 C10          3.8760    -9.2840    16.7730 C.2          1 FMN1001   0.0000
    19 C1'          5.7610   -10.9410    16.8430 C.3          1 FMN1001   0.0000
    20 C2'          6.9810   -10.0670    17.1040 C.3          1 FMN1001   0.0000
    21 O2'          7.2970    -9.3070    15.9530 O.3          1 FMN1001   0.0000
    22 C3'          8.2060   -10.9220    17.4340 C.3          1 FMN1001   0.0000
    23 O3'          8.0350   -11.6910    18.6110 O.3          1 FMN1001   0.0000
    24 C4'          9.4770   -10.0760    17.4940 C.3          1 FMN1001   0.0000
    25 O4'         10.5860   -10.9340    17.5190 O.3          1 FMN1001   0.0000
    26 C5'          9.5610    -9.1240    18.6800 C.3          1 FMN1001   0.0000
    27 O5'         10.7790    -8.4290    18.4850 O.3          1 FMN1001   0.0000
    28 P           11.5880    -7.7270    19.6940 P.3          1 FMN1001   0.0000
    29 O1P         11.7330    -8.7100    20.8190 O.co2        1 FMN1001   0.0000
    30 O2P         10.7700    -6.5630    20.1690 O.co2        1 FMN1001  -1.0000
    31 O3P         12.9310    -7.2200    19.2460 O.co2        1 FMN1001  -1.0000
    32 H1           1.7799    -6.6986    18.6125 H            1 FMN1001   0.0000
    33 H2           2.6600    -9.2616    12.1810 H            1 FMN1001   0.0000
    34 H7M1         4.5541   -11.5425    10.1069 H            1 FMN1001   0.0000
    35 H7M2         3.0034   -11.0481    10.2387 H            1 FMN1001   0.0000
    36 H7M3         4.1991    -9.9491    10.0675 H            1 FMN1001   0.0000
    37 H8M1         6.6500   -12.8537    12.5301 H            1 FMN1001   0.0000
    38 H8M2         5.5745   -13.0448    11.3163 H            1 FMN1001   0.0000
    39 H8M3         6.6133   -11.7850    11.2959 H            1 FMN1001   0.0000
    40 H9           5.9241   -11.9038    14.4967 H            1 FMN1001   0.0000
    41 H1'1         6.0462   -11.7317    16.3013 H            1 FMN1001   0.0000
    42 H1'2         5.3987   -11.2520    17.7216 H            1 FMN1001   0.0000
    43 H2'          6.7907    -9.4501    17.8677 H            1 FMN1001   0.0000
    44 H13          6.5213    -8.7219    15.7166 H            1 FMN1001   0.0000
    45 H3'          8.3218   -11.5676    16.6792 H            1 FMN1001   0.0000
    46 H15          7.1288   -11.5150    18.9954 H            1 FMN1001   0.0000
    47 H4'          9.5260    -9.5317    16.6565 H            1 FMN1001   0.0000
    48 H17         11.4257   -10.3924    17.5583 H            1 FMN1001   0.0000
    49 H5'1         9.5768    -9.6317    19.5414 H            1 FMN1001   0.0000
    50 H5'2         8.7876    -8.4901    18.6809 H            1 FMN1001   0.0000
@<TRIPOS>BOND
     1    1    2       1
     2    1   18       2
     3    2    3       2
     4    2    4       1
     5    4    5       1
     6    5    6       2
     7    5    7       1
     8    7    8       2
     9    7   18       1
    10    8    9       1
    11    9   10      ar
    12    9   16      ar
    13   10   11      ar
    14   11   12       1
    15   11   13      ar
    16   13   14       1
    17   13   15      ar
    18   15   16      ar
    19   16   17       1
    20   17   18       1
    21   17   19       1
    22   19   20       1
    23   20   21       1
    24   20   22       1
    25   22   23       1
    26   22   24       1
    27   24   25       1
    28   24   26       1
    29   26   27       1
    30   27   28       1
    31   28   29      ar
    32   28   30      ar
    33   28   31      ar
    34    4   32       1
    35   10   33       1
    36   12   34       1
    37   12   35       1
    38   12   36       1
    39   14   37       1
    40   14   38       1
    41   14   39       1
    42   15   40       1
    43   19   41       1
    44   19   42       1
    45   20   43       1
    46   21   44       1
    47   22   45       1
    48   23   46       1
    49   24   47       1
    50   25   48       1
    51   26   49       1
    52   26   50       1
@<TRIPOS>SUBSTRUCTURE
     1 FMN1001     1 GROUP             4 B     FMN     0 **** FMN B1001
