@<TRIPOS>MOLECULE
3ffk_ATP_2_ligand
   43    45     1     0     0
SMALL
NO_CHARGES


@<TRIPOS>ATOM
     1 PG         -14.2820     8.7750   -32.7210 P.3          1 ATP380   0.0000
     2 O1G        -14.6080     9.9710   -31.8460 O.co2        1 ATP380   0.0000
     3 O2G        -14.6580     8.8810   -34.1760 O.co2        1 ATP380  -1.0000
     4 O3G        -12.9000     8.1760   -32.5360 O.co2        1 ATP380  -1.0000
     5 PB         -15.0060     6.5220   -31.1370 P.3          1 ATP380   0.0000
     6 O1B        -16.3590     6.1390   -30.6100 O.co2        1 ATP380   0.0000
     7 O2B        -13.9040     6.9240   -30.1850 O.co2        1 ATP380  -1.0000
     8 O3B        -15.3450     7.6880   -32.1940 O.3          1 ATP380   0.0000
     9 PA         -13.8320     4.0040   -31.4050 P.3          1 ATP380   0.0000
    10 O1A        -12.3280     4.0990   -31.4460 O.co2        1 ATP380   0.0000
    11 O2A        -14.4650     3.7130   -30.0670 O.co2        1 ATP380  -1.0000
    12 O3A        -14.4200     5.3460   -32.0580 O.3          1 ATP380   0.0000
    13 O5'        -14.3620     2.9160   -32.4690 O.3          1 ATP380   0.0000
    14 C5'        -15.7340     2.8640   -32.8700 C.3          1 ATP380   0.0000
    15 C4'        -15.8280     2.5700   -34.3620 C.3          1 ATP380   0.0000
    16 O4'        -15.0260     1.4360   -34.6780 O.3          1 ATP380   0.0000
    17 C3'        -17.2330     2.1930   -34.7930 C.3          1 ATP380   0.0000
    18 O3'        -17.5680     2.8620   -36.0250 O.3          1 ATP380   0.0000
    19 C2'        -17.1660     0.6990   -35.0250 C.3          1 ATP380   0.0000
    20 O2'        -18.1080     0.2220   -35.9960 O.3          1 ATP380   0.0000
    21 C1'        -15.7530     0.5440   -35.5210 C.3          1 ATP380   0.0000
    22 N9         -15.3100    -0.8720   -35.4450 N.pl3        1 ATP380   0.0000
    23 C8         -15.2740    -1.6590   -34.3470 C.2          1 ATP380   0.0000
    24 N7         -14.8260    -2.9090   -34.6500 N.2          1 ATP380   0.0000
    25 C5         -14.5650    -2.9310   -35.9720 C.ar         1 ATP380   0.0000
    26 C6         -14.0640    -3.9220   -36.9490 C.ar         1 ATP380   0.0000
    27 N6         -13.7410    -5.1670   -36.5650 N.pl3        1 ATP380   0.0000
    28 N1         -13.9360    -3.5600   -38.2370 N.ar         1 ATP380   0.0000
    29 C2         -14.2510    -2.3140   -38.6360 C.ar         1 ATP380   0.0000
    30 N3         -14.7140    -1.3530   -37.8110 N.ar         1 ATP380   0.0000
    31 C4         -14.8910    -1.5940   -36.4890 C.ar         1 ATP380   0.0000
    32 H5'1       -16.1692     3.7435   -32.6774 H            1 ATP380   0.0000
    33 H5'2       -16.2013     2.1420   -32.3598 H            1 ATP380   0.0000
    34 H4'        -15.5145     3.3631   -34.8842 H            1 ATP380   0.0000
    35 H3'        -17.8958     2.4126   -34.0772 H            1 ATP380   0.0000
    36 H5         -18.3694     3.4428   -35.8817 H            1 ATP380   0.0000
    37 H2'        -17.2839     0.2100   -34.1607 H            1 ATP380   0.0000
    38 H7         -18.0087    -0.7678   -36.0986 H            1 ATP380   0.0000
    39 H1'        -15.6961     0.8602   -36.4680 H            1 ATP380   0.0000
    40 H9         -15.5417    -1.3620   -33.4304 H            1 ATP380   0.0000
    41 H10        -13.4036    -5.8259   -37.2373 H            1 ATP380   0.0000
    42 H11        -13.8378    -5.4356   -35.6066 H            1 ATP380   0.0000
    43 H12        -14.1347    -2.0870   -39.6029 H            1 ATP380   0.0000
@<TRIPOS>BOND
     1    1    2      ar
     2    1    3      ar
     3    1    4      ar
     4    1    8       1
     5    5    6      ar
     6    5    7      ar
     7    5    8       1
     8    5   12       1
     9    9   10      ar
    10    9   11      ar
    11    9   12       1
    12    9   13       1
    13   13   14       1
    14   14   15       1
    15   15   16       1
    16   15   17       1
    17   16   21       1
    18   17   18       1
    19   17   19       1
    20   19   20       1
    21   19   21       1
    22   21   22       1
    23   22   23       1
    24   22   31       1
    25   23   24       2
    26   24   25       1
    27   25   26      ar
    28   25   31      ar
    29   26   27       1
    30   26   28      ar
    31   28   29      ar
    32   29   30      ar
    33   30   31      ar
    34   29   43       1
    35   27   42       1
    36   27   41       1
    37   23   40       1
    38   14   32       1
    39   14   33       1
    40   15   34       1
    41   17   35       1
    42   18   36       1
    43   19   37       1
    44   20   38       1
    45   21   39       1
@<TRIPOS>SUBSTRUCTURE
     1 ATP380      1 GROUP             4 E     ATP     0 **** ATP E 380
