@<TRIPOS>MOLECULE
4kuo_RBF_1_ligand
   47    49     1     0     0
SMALL
NO_CHARGES


@<TRIPOS>ATOM
     1 N1          11.3070    -2.4770    -2.3810 N.2          1 RBF500   0.0000
     2 C2          12.0210    -1.8470    -1.4150 C.2          1 RBF500   0.0000
     3 O2          12.2350    -2.4610    -0.3510 O.2          1 RBF500   0.0000
     4 N3          12.5010    -0.5940    -1.5570 N.pl3        1 RBF500   0.0000
     5 C4          12.3070     0.1200    -2.6730 C.2          1 RBF500   0.0000
     6 O4          12.7580     1.2810    -2.7910 O.2          1 RBF500   0.0000
     7 C4A         11.5360    -0.5000    -3.7780 C.2          1 RBF500   0.0000
     8 N5          11.2950     0.1540    -4.9350 N.2          1 RBF500   0.0000
     9 C5A         10.5830    -0.4330    -5.9230 C.ar         1 RBF500   0.0000
    10 C6          10.3440     0.2660    -7.0980 C.ar         1 RBF500   0.0000
    11 C7           9.6250    -0.3140    -8.1360 C.ar         1 RBF500   0.0000
    12 C7M          9.3790     0.4600    -9.4080 C.3          1 RBF500   0.0000
    13 C8           9.0940    -1.6930    -7.9820 C.ar         1 RBF500   0.0000
    14 C8M          8.3080    -2.3260    -9.1050 C.3          1 RBF500   0.0000
    15 C9           9.3260    -2.3980    -6.8050 C.ar         1 RBF500   0.0000
    16 C9A         10.0530    -1.8150    -5.7670 C.ar         1 RBF500   0.0000
    17 N10         10.3050    -2.5200    -4.5680 N.pl3        1 RBF500   0.0000
    18 C10         11.0380    -1.8750    -3.5570 C.2          1 RBF500   0.0000
    19 C1'          9.7840    -3.8720    -4.3540 C.3          1 RBF500   0.0000
    20 C2'         10.7070    -4.9970    -4.7990 C.3          1 RBF500   0.0000
    21 O2'         11.3260    -4.6920    -6.0530 O.3          1 RBF500   0.0000
    22 C3'          9.8720    -6.2650    -4.9280 C.3          1 RBF500   0.0000
    23 O3'          8.8420    -6.0560    -5.8960 O.3          1 RBF500   0.0000
    24 C4'          9.2180    -6.6040    -3.5940 C.3          1 RBF500   0.0000
    25 O4'         10.2420    -7.0060    -2.6850 O.3          1 RBF500   0.0000
    26 C5'          8.1760    -7.7140    -3.7270 C.3          1 RBF500   0.0000
    27 O5'          8.7680    -8.8730    -4.3280 O.3          1 RBF500   0.0000
    28 H1          13.0181    -0.1856    -0.8048 H            1 RBF500   0.0000
    29 H2          10.6932     1.1976    -7.1987 H            1 RBF500   0.0000
    30 H7M1         8.8501    -0.1025   -10.0435 H            1 RBF500   0.0000
    31 H7M2         8.8691     1.2940    -9.1974 H            1 RBF500   0.0000
    32 H7M3        10.2548     0.7013    -9.8260 H            1 RBF500   0.0000
    33 H8M1         8.0278    -3.2479    -8.8374 H            1 RBF500   0.0000
    34 H8M2         7.4968    -1.7736    -9.2968 H            1 RBF500   0.0000
    35 H8M3         8.8788    -2.3758    -9.9246 H            1 RBF500   0.0000
    36 H9           8.9699    -3.3269    -6.7028 H            1 RBF500   0.0000
    37 H1'1         8.9256    -3.9570    -4.8600 H            1 RBF500   0.0000
    38 H1'2         9.6071    -3.9847    -3.3762 H            1 RBF500   0.0000
    39 H2'         11.4149    -5.1368    -4.1066 H            1 RBF500   0.0000
    40 H13         11.9255    -5.4462    -6.3209 H            1 RBF500   0.0000
    41 H3'         10.4560    -7.0233    -5.2178 H            1 RBF500   0.0000
    42 H15          8.0261    -5.6973    -5.4425 H            1 RBF500   0.0000
    43 H4'          8.7720    -5.7839    -3.2356 H            1 RBF500   0.0000
    44 H17         11.1295    -6.9664    -3.1440 H            1 RBF500   0.0000
    45 H5'1         7.4215    -7.3930    -4.2994 H            1 RBF500   0.0000
    46 H5'2         7.8284    -7.9523    -2.8201 H            1 RBF500   0.0000
    47 H5'          8.2893    -9.0885    -5.1791 H            1 RBF500   0.0000
@<TRIPOS>BOND
     1    1    2       1
     2    1   18       2
     3    2    3       2
     4    2    4       1
     5    4    5       1
     6    5    6       2
     7    5    7       1
     8    7    8       2
     9    7   18       1
    10    8    9       1
    11    9   10      ar
    12    9   16      ar
    13   10   11      ar
    14   11   12       1
    15   11   13      ar
    16   13   14       1
    17   13   15      ar
    18   15   16      ar
    19   16   17       1
    20   17   18       1
    21   17   19       1
    22   19   20       1
    23   20   21       1
    24   20   22       1
    25   22   23       1
    26   22   24       1
    27   24   25       1
    28   24   26       1
    29   26   27       1
    30    4   28       1
    31   10   29       1
    32   12   30       1
    33   12   31       1
    34   12   32       1
    35   14   33       1
    36   14   34       1
    37   14   35       1
    38   15   36       1
    39   19   37       1
    40   19   38       1
    41   20   39       1
    42   21   40       1
    43   22   41       1
    44   23   42       1
    45   24   43       1
    46   25   44       1
    47   26   45       1
    48   26   46       1
    49   27   47       1
@<TRIPOS>SUBSTRUCTURE
     1 RBF500      1 GROUP             4 A     RBF     0 **** RBF A 500
