@<TRIPOS>MOLECULE
2p5y_NAD_1_ligand
   70    74     1     0     0
SMALL
NO_CHARGES


@<TRIPOS>ATOM
     1 PA         104.2240    87.5490   129.7700 P.3          1 NAD1118   0.0000
     2 O1A        103.3390    87.5440   130.9620 O.co2        1 NAD1118   0.0000
     3 O2A        105.6630    87.4840   130.0690 O.co2        1 NAD1118  -1.0000
     4 O5B        104.0090    88.9000   128.8960 O.3          1 NAD1118   0.0000
     5 C5B        102.7960    89.6390   128.9150 C.3          1 NAD1118   0.0000
     6 C4B        103.1340    91.0770   129.2980 C.3          1 NAD1118   0.0000
     7 O4B        101.9440    91.8470   129.3280 O.3          1 NAD1118   0.0000
     8 C3B        103.7710    91.1640   130.6860 C.3          1 NAD1118   0.0000
     9 O3B        104.9730    91.9090   130.6660 O.3          1 NAD1118   0.0000
    10 C2B        102.7290    91.8670   131.5110 C.3          1 NAD1118   0.0000
    11 O2B        103.3110    92.6060   132.5660 O.3          1 NAD1118   0.0000
    12 C1B        101.9810    92.6950   130.4730 C.3          1 NAD1118   0.0000
    13 N9A        100.5830    92.9300   130.8560 N.pl3        1 NAD1118   0.0000
    14 C8A         99.6930    92.0370   131.3930 C.2          1 NAD1118   0.0000
    15 N7A         98.5060    92.6770   131.5500 N.2          1 NAD1118   0.0000
    16 C5A         98.6520    93.9600   131.1470 C.ar         1 NAD1118   0.0000
    17 C6A         97.7740    95.0390   131.1180 C.ar         1 NAD1118   0.0000
    18 N6A         96.5280    94.9170   131.5890 N.pl3        1 NAD1118   0.0000
    19 N1A         98.2330    96.2500   130.6250 N.ar         1 NAD1118   0.0000
    20 C2A         99.5340    96.4010   130.1820 C.ar         1 NAD1118   0.0000
    21 N3A        100.3850    95.3120   130.2240 N.ar         1 NAD1118   0.0000
    22 C4A         99.9420    94.1270   130.7010 C.ar         1 NAD1118   0.0000
    23 O3         103.7700    86.3430   128.8280 O.3          1 NAD1118   0.0000
    24 PN         104.3870    85.9140   127.3900 P.3          1 NAD1118   0.0000
    25 O1N        104.5430    84.4550   127.4690 O.co2        1 NAD1118   0.0000
    26 O2N        105.5230    86.7820   127.0530 O.co2        1 NAD1118  -1.0000
    27 O5D        103.1760    86.1770   126.3750 O.3          1 NAD1118   0.0000
    28 C5D        103.1680    87.2700   125.4730 C.3          1 NAD1118   0.0000
    29 C4D        101.9880    87.1210   124.5110 C.3          1 NAD1118   0.0000
    30 O4D        102.1150    85.8960   123.8080 O.3          1 NAD1118   0.0000
    31 C3D        100.6660    87.0350   125.2690 C.3          1 NAD1118   0.0000
    32 O3D         99.6500    87.6900   124.5300 O.3          1 NAD1118   0.0000
    33 C2D        100.3750    85.5510   125.3100 C.3          1 NAD1118   0.0000
    34 O2D         98.9890    85.2770   125.4510 O.3          1 NAD1118   0.0000
    35 C1D        100.9530    85.1180   123.9630 C.3          1 NAD1118   0.0000
    36 N1N        101.2910    83.6800   123.8760 N.ar         1 NAD1118   1.0000
    37 C2N        102.2480    83.1110   124.6920 C.ar         1 NAD1118   0.0000
    38 C3N        102.5410    81.7420   124.5760 C.ar         1 NAD1118   0.0000
    39 C7N        103.6490    81.1190   125.3900 C.2          1 NAD1118   0.0000
    40 O7N        103.9417    79.7443   125.2700 O.2          1 NAD1118   0.0000
    41 N7N        104.3372    81.8847   126.2046 N.am         1 NAD1118   0.0000
    42 C4N        101.8600    80.9800   123.6290 C.ar         1 NAD1118   0.0000
    43 C5N        100.8900    81.5630   122.8200 C.ar         1 NAD1118   0.0000
    44 C6N        100.6090    82.9230   122.9460 C.ar         1 NAD1118   0.0000
    45 H5B1       102.1685    89.2461   129.5872 H            1 NAD1118   0.0000
    46 H5B2       102.3707    89.6186   128.0102 H            1 NAD1118   0.0000
    47 H4B        103.7610    91.4619   128.6207 H            1 NAD1118   0.0000
    48 H3B        103.9383    90.2470   131.0481 H            1 NAD1118   0.0000
    49 H5         104.7840    92.8382   130.3484 H            1 NAD1118   0.0000
    50 H2B        102.1051    91.1867   131.8957 H            1 NAD1118   0.0000
    51 H7         103.9312    93.2937   132.1887 H            1 NAD1118   0.0000
    52 H1B        102.4561    93.5530   130.2777 H            1 NAD1118   0.0000
    53 H8A         99.8838    91.0838   131.6275 H            1 NAD1118   0.0000
    54 H6A1        95.9050    95.6988   131.5634 H            1 NAD1118   0.0000
    55 H6A2        96.2195    94.0440   131.9667 H            1 NAD1118   0.0000
    56 H2A         99.8542    97.2833   129.8369 H            1 NAD1118   0.0000
    57 H5D1       104.0228    87.2816   124.9542 H            1 NAD1118   0.0000
    58 H5D2       103.0767    88.1246   125.9842 H            1 NAD1118   0.0000
    59 H4D        101.9680    87.8870   123.8684 H            1 NAD1118   0.0000
    60 H3D        100.7490    87.4154   126.1901 H            1 NAD1118   0.0000
    61 H17         99.8527    87.6233   123.5530 H            1 NAD1118   0.0000
    62 H2D        100.8860    85.1226   126.0552 H            1 NAD1118   0.0000
    63 H19         98.8454    84.2876   125.4733 H            1 NAD1118   0.0000
    64 H1D        100.3042    85.3478   123.2376 H            1 NAD1118   0.0000
    65 H2N        102.7315    83.6719   125.3640 H            1 NAD1118   0.0000
    66 H7N1       105.0830    81.4960   126.7456 H            1 NAD1118   0.0000
    67 H7N2       104.1155    82.8566   126.2841 H            1 NAD1118   0.0000
    68 H4N        102.0699    80.0073   123.5302 H            1 NAD1118   0.0000
    69 H5N        100.3959    81.0086   122.1503 H            1 NAD1118   0.0000
    70 H6N         99.9155    83.3481   122.3643 H            1 NAD1118   0.0000
@<TRIPOS>BOND
     1    1    2      ar
     2    1    3      ar
     3    1    4       1
     4    1   23       1
     5    4    5       1
     6    5    6       1
     7    6    7       1
     8    6    8       1
     9    7   12       1
    10    8    9       1
    11    8   10       1
    12   10   11       1
    13   10   12       1
    14   12   13       1
    15   13   14       1
    16   13   22       1
    17   14   15       2
    18   15   16       1
    19   16   17      ar
    20   16   22      ar
    21   17   18       1
    22   17   19      ar
    23   19   20      ar
    24   20   21      ar
    25   21   22      ar
    26   23   24       1
    27   24   25      ar
    28   24   26      ar
    29   24   27       1
    30   27   28       1
    31   28   29       1
    32   29   30       1
    33   29   31       1
    34   30   35       1
    35   31   32       1
    36   31   33       1
    37   33   34       1
    38   33   35       1
    39   35   36       1
    40   36   37      ar
    41   36   44      ar
    42   37   38      ar
    43   38   39       1
    44   38   42      ar
    45   39   40       2
    46   39   41      am
    47   42   43      ar
    48   43   44      ar
    49   44   70       1
    50    5   45       1
    51    5   46       1
    52    6   47       1
    53    8   48       1
    54    9   49       1
    55   10   50       1
    56   11   51       1
    57   12   52       1
    58   14   53       1
    59   18   54       1
    60   18   55       1
    61   20   56       1
    62   43   69       1
    63   28   57       1
    64   28   58       1
    65   29   59       1
    66   31   60       1
    67   32   61       1
    68   33   62       1
    69   34   63       1
    70   35   64       1
    71   37   65       1
    72   41   66       1
    73   41   67       1
    74   42   68       1
@<TRIPOS>SUBSTRUCTURE
     1 NAD1118     1 GROUP             4 A     NAD     0 **** NAD A1118
