@<TRIPOS>MOLECULE
4ymg_SAM_1_ligand
   50    52     1     0     0
SMALL
NO_CHARGES


@<TRIPOS>ATOM
     1 N           -4.0180     7.5480   -17.4640 N.4          1 SAM1001   1.0000
     2 CA          -5.3000     7.8020   -18.1180 C.3          1 SAM1001   0.0000
     3 C           -6.1900     8.7130   -17.2910 C.2          1 SAM1001   0.0000
     4 O           -7.1650     9.2710   -17.7980 O.co2        1 SAM1001   0.0000
     5 OXT         -5.9610     8.9050   -16.1000 O.co2        1 SAM1001  -1.0000
     6 CB          -6.0770     6.5230   -18.4530 C.3          1 SAM1001   0.0000
     7 CG          -5.2550     5.2980   -18.8470 C.3          1 SAM1001   0.0000
     8 SD          -6.3410     3.9720   -19.4690 S.3          1 SAM1001   1.0000
     9 CE          -6.7670     3.1870   -17.8780 C.3          1 SAM1001   0.0000
    10 C5'         -5.1600     2.7360   -20.0860 C.3          1 SAM1001   0.0000
    11 C4'         -4.4550     3.1360   -21.3820 C.3          1 SAM1001   0.0000
    12 O4'         -3.3260     2.3090   -21.5760 O.3          1 SAM1001   0.0000
    13 C3'         -5.3370     2.9620   -22.6150 C.3          1 SAM1001   0.0000
    14 O3'         -5.3060     4.1420   -23.3840 O.3          1 SAM1001   0.0000
    15 C2'         -4.6890     1.8380   -23.4180 C.3          1 SAM1001   0.0000
    16 O2'         -4.7600     2.0130   -24.8190 O.3          1 SAM1001   0.0000
    17 C1'         -3.2570     1.9150   -22.9360 C.3          1 SAM1001   0.0000
    18 N9          -2.5680     0.6280   -22.9970 N.pl3        1 SAM1001   0.0000
    19 C8          -3.0530    -0.6120   -22.6600 C.2          1 SAM1001   0.0000
    20 N7          -2.0570    -1.5100   -22.8410 N.2          1 SAM1001   0.0000
    21 C5          -0.9560    -0.8530   -23.2780 C.ar         1 SAM1001   0.0000
    22 C6           0.3210    -1.2680   -23.6130 C.ar         1 SAM1001   0.0000
    23 N6           0.6670    -2.5550   -23.5420 N.pl3        1 SAM1001   0.0000
    24 N1           1.2360    -0.3240   -24.0280 N.ar         1 SAM1001   0.0000
    25 C2           0.9060     1.0150   -24.1110 C.ar         1 SAM1001   0.0000
    26 N3          -0.3650     1.4230   -23.7780 N.ar         1 SAM1001   0.0000
    27 C4          -1.2690     0.4980   -23.3670 C.ar         1 SAM1001   0.0000
    28 H1          -3.4638     6.9462   -18.0391 H            1 SAM1001   0.0000
    29 H2          -3.5367     8.4137   -17.3264 H            1 SAM1001   0.0000
    30 HA          -5.1090     8.2713   -18.9801 H            1 SAM1001   0.0000
    31 HB1         -6.6903     6.7329   -19.2145 H            1 SAM1001   0.0000
    32 HB2         -6.6171     6.2781   -17.6478 H            1 SAM1001   0.0000
    33 HG1         -4.7555     4.9659   -18.0469 H            1 SAM1001   0.0000
    34 HG2         -4.6054     5.5541   -19.5629 H            1 SAM1001   0.0000
    35 HE1         -7.3788     2.4130   -18.0414 H            1 SAM1001   0.0000
    36 HE2         -5.9325     2.8638   -17.4317 H            1 SAM1001   0.0000
    37 HE3         -7.2232     3.8539   -17.2888 H            1 SAM1001   0.0000
    38 H5'1        -5.6553     1.8827   -20.2488 H            1 SAM1001   0.0000
    39 H5'2        -4.4642     2.5886   -19.3830 H            1 SAM1001   0.0000
    40 H4'         -4.1600     4.0893   -21.3178 H            1 SAM1001   0.0000
    41 H3'         -6.2737     2.7256   -22.3567 H            1 SAM1001   0.0000
    42 H15         -4.3661     4.3290   -23.6699 H            1 SAM1001   0.0000
    43 H2'         -5.0900     0.9585   -23.1617 H            1 SAM1001   0.0000
    44 H17         -4.2952     2.8612   -25.0729 H            1 SAM1001   0.0000
    45 H1'         -2.7538     2.5982   -23.4653 H            1 SAM1001   0.0000
    46 H19         -3.9777    -0.8151   -22.3381 H            1 SAM1001   0.0000
    47 H20          1.5942    -2.8378   -23.7878 H            1 SAM1001   0.0000
    48 H21         -0.0009    -3.2366   -23.2430 H            1 SAM1001   0.0000
    49 H22          1.5866     1.6833   -24.4112 H            1 SAM1001   0.0000
    50 H23         -4.1763     7.1103   -16.5789 H            1 SAM1001   0.0000
@<TRIPOS>BOND
     1    1    2       1
     2    2    3       1
     3    2    6       1
     4    3    4      ar
     5    3    5      ar
     6    6    7       1
     7    7    8       1
     8    8    9       1
     9    8   10       1
    10   10   11       1
    11   11   12       1
    12   11   13       1
    13   12   17       1
    14   13   14       1
    15   13   15       1
    16   15   16       1
    17   15   17       1
    18   17   18       1
    19   18   19       1
    20   18   27       1
    21   19   20       2
    22   20   21       1
    23   21   22      ar
    24   21   27      ar
    25   22   23       1
    26   22   24      ar
    27   24   25      ar
    28   25   26      ar
    29   26   27      ar
    30    1   28       1
    31    1   29       1
    32    2   30       1
    33    1   50       1
    34    6   31       1
    35    6   32       1
    36    7   33       1
    37    7   34       1
    38    9   35       1
    39    9   36       1
    40    9   37       1
    41   10   38       1
    42   10   39       1
    43   11   40       1
    44   13   41       1
    45   14   42       1
    46   15   43       1
    47   16   44       1
    48   17   45       1
    49   19   46       1
    50   23   47       1
    51   23   48       1
    52   25   49       1
@<TRIPOS>SUBSTRUCTURE
     1 SAM1001     1 GROUP             4 A     SAM     0 **** SAM A1001
