@<TRIPOS>MOLECULE
3ndv_NDV_6_ligand
   46    47     1     0     0
SMALL
NO_CHARGES


@<TRIPOS>ATOM
     1 C1           3.6330    -1.6380    -4.2930 C.3          1 NDV375   0.0000
     2 N1           9.3800    -0.6280    -3.1670 N.am         1 NDV375   0.0000
     3 O1           3.5690    -1.7090    -0.7020 O.co2        1 NDV375   0.0000
     4 S1           6.2550    -1.8180    -4.4930 S.3          1 NDV375   0.0000
     5 C2           3.9580    -0.9760    -1.6450 C.2          1 NDV375   0.0000
     6 N2          11.7330    -3.0220    -2.1300 N.4          1 NDV375   1.0000
     7 O2           3.6000     0.2350    -1.6660 O.co2        1 NDV375  -1.0000
     8 C3           9.8510    -1.9860    -3.2880 C.2          1 NDV375   0.0000
     9 N3           5.9290    -0.0720    -2.6970 N.4          1 NDV375   1.0000
    10 O3          10.1090    -2.4190    -4.3890 O.2          1 NDV375   0.0000
    11 C4          10.2960    -2.7610    -2.0530 C.3          1 NDV375   0.0000
    12 O4           8.6190     1.6600    -2.3730 O.2          1 NDV375   0.0000
    13 C5           9.4890    -4.0630    -1.8830 C.ar         1 NDV375   0.0000
    14 C6           4.8820    -2.1310    -3.5820 C.3          1 NDV375   0.0000
    15 C7           9.5760    -4.7970    -0.7090 C.ar         1 NDV375   0.0000
    16 C8           8.8470    -5.9710    -0.5670 C.ar         1 NDV375   0.0000
    17 C9           8.0250    -6.4100    -1.5960 C.ar         1 NDV375   0.0000
    18 C10          7.9390    -5.6780    -2.7730 C.ar         1 NDV375   0.0000
    19 C11          8.6700    -4.5050    -2.9140 C.ar         1 NDV375   0.0000
    20 C12          5.0980    -1.3270    -2.2550 C.3          1 NDV375   0.0000
    21 C13          7.0860    -0.9410    -3.4070 C.3          1 NDV375   0.0000
    22 C14          8.2080    -0.1580    -3.8810 C.3          1 NDV375   0.0000
    23 C15          8.0640     1.2770    -3.4460 C.2          1 NDV375   0.0000
    24 C16          4.7590    -3.6110    -3.3010 C.3          1 NDV375   0.0000
    25 H1           2.8297    -1.8357    -3.7312 H            1 NDV375   0.0000
    26 H2           3.7014    -0.6514    -4.4414 H            1 NDV375   0.0000
    27 H3           3.5459    -2.1024    -5.1743 H            1 NDV375   0.0000
    28 H4           9.8752     0.0072    -2.5743 H            1 NDV375   0.0000
    29 H5          12.0234    -3.5304    -1.3193 H            1 NDV375   0.0000
    30 H6          11.9306    -3.5601    -2.9494 H            1 NDV375   0.0000
    31 H7           6.2621     0.4704    -1.9257 H            1 NDV375   0.0000
    32 H8          10.1288    -2.1871    -1.2513 H            1 NDV375   0.0000
    33 H9          10.1639    -4.4808     0.0356 H            1 NDV375   0.0000
    34 H10          8.9145    -6.5010     0.2783 H            1 NDV375   0.0000
    35 H11          7.4958    -7.2518    -1.4899 H            1 NDV375   0.0000
    36 H12          7.3518    -5.9947    -3.5179 H            1 NDV375   0.0000
    37 H13          8.6063    -3.9770    -3.7609 H            1 NDV375   0.0000
    38 H14          5.6479    -1.8771    -1.6265 H            1 NDV375   0.0000
    39 H15          7.4392    -1.5778    -2.7217 H            1 NDV375   0.0000
    40 H16          8.3218    -0.2353    -4.8715 H            1 NDV375   0.0000
    41 H17          7.5354     1.9213    -3.9987 H            1 NDV375   0.0000
    42 H18          5.5828    -3.9311    -2.8332 H            1 NDV375   0.0000
    43 H19          3.9612    -3.7749    -2.7208 H            1 NDV375   0.0000
    44 H20          4.6516    -4.1062    -4.1631 H            1 NDV375   0.0000
    45 H21         12.2276    -2.1540    -2.1740 H            1 NDV375   0.0000
    46 H22          5.4364     0.5213    -3.3336 H            1 NDV375   0.0000
@<TRIPOS>BOND
     1    1   14       1
     2    2    8      am
     3    2   22       1
     4    3    5      ar
     5    4   14       1
     6    4   21       1
     7    5    7      ar
     8    5   20       1
     9    6   11       1
    10    8   10       2
    11    8   11       1
    12    9   20       1
    13    9   21       1
    14   11   13       1
    15   12   23       2
    16   13   15      ar
    17   13   19      ar
    18   14   20       1
    19   14   24       1
    20   15   16      ar
    21   16   17      ar
    22   17   18      ar
    23   18   19      ar
    24   21   22       1
    25   22   23       1
    26    1   25       1
    27    1   26       1
    28    1   27       1
    29    2   28       1
    30   24   44       1
    31    6   29       1
    32    6   30       1
    33    9   31       1
    34   11   32       1
    35   15   33       1
    36   16   34       1
    37   17   35       1
    38   18   36       1
    39   19   37       1
    40   20   38       1
    41   21   39       1
    42   22   40       1
    43   23   41       1
    44   24   42       1
    45   24   43       1
    46    6   45       1
    47    9   46       1
@<TRIPOS>SUBSTRUCTURE
     1 NDV375      1 GROUP             4 D     NDV     0 **** NDV D 375
