@<TRIPOS>MOLECULE
3mvz_BHN_2_ligand
   49    50     1     0     0
SMALL
NO_CHARGES


@<TRIPOS>ATOM
     1 C1          35.3280    24.9820    20.5820 C.ar         1 BHN507   0.0000
     2 C2          34.6240    26.1670    20.7720 C.ar         1 BHN507   0.0000
     3 C3          33.3420    26.3320    20.2510 C.ar         1 BHN507   0.0000
     4 C4          32.7450    25.2930    19.5570 C.ar         1 BHN507   0.0000
     5 C5          33.4360    24.0950    19.3550 C.ar         1 BHN507   0.0000
     6 C6          34.7310    23.9410    19.8680 C.ar         1 BHN507   0.0000
     7 O6          35.4010    22.7800    19.6880 O.3          1 BHN507  -1.0000
     8 C7          36.7370    24.8960    21.1830 C.3          1 BHN507   0.0000
     9 N8          36.8280    23.6710    22.0110 N.3          1 BHN507   0.0000
    10 C9          35.9570    23.7490    23.2000 C.3          1 BHN507   0.0000
    11 C10         35.6550    22.3460    23.7560 C.3          1 BHN507   0.0000
    12 N11         35.2240    21.3600    22.7250 N.3          1 BHN507   0.0000
    13 C12         33.7710    21.5550    22.4930 C.3          1 BHN507   0.0000
    14 C13         33.0590    20.4150    21.7640 C.ar         1 BHN507   0.0000
    15 C14         32.2210    19.5360    22.4570 C.ar         1 BHN507   0.0000
    16 C15         31.5560    18.5100    21.7740 C.ar         1 BHN507   0.0000
    17 C16         31.7030    18.3560    20.4090 C.ar         1 BHN507   0.0000
    18 C17         32.5440    19.2200    19.7200 C.ar         1 BHN507   0.0000
    19 C18         33.2050    20.2480    20.3960 C.ar         1 BHN507   0.0000
    20 O18         34.0200    21.0510    19.6800 O.3          1 BHN507   0.0000
    21 C19         38.2040    23.5250    22.4940 C.3          1 BHN507   0.0000
    22 C20         39.0530    23.1260    21.2980 C.2          1 BHN507   0.0000
    23 O20         38.5490    22.3080    20.4740 O.co2        1 BHN507   0.0000
    24 C21         35.5020    20.0190    23.2870 C.3          1 BHN507   0.0000
    25 O21         40.1880    23.6550    21.2260 O.co2        1 BHN507  -1.0000
    26 C22         36.9630    19.6660    22.9790 C.2          1 BHN507   0.0000
    27 O22         37.4650    20.2640    22.0160 O.co2        1 BHN507   0.0000
    28 O23         37.5010    18.7900    23.6740 O.co2        1 BHN507  -1.0000
    29 H1          35.0444    26.9117    21.2904 H            1 BHN507   0.0000
    30 H2          32.8556    27.1965    20.3777 H            1 BHN507   0.0000
    31 H3          31.8172    25.4001    19.1995 H            1 BHN507   0.0000
    32 H4          33.0071    23.3491    18.8454 H            1 BHN507   0.0000
    33 H5          36.9095    25.7000    21.7520 H            1 BHN507   0.0000
    34 H6          37.4141    24.8562    20.4482 H            1 BHN507   0.0000
    35 H7          35.0972    24.1924    22.9469 H            1 BHN507   0.0000
    36 H8          36.4152    24.2888    23.9061 H            1 BHN507   0.0000
    37 H9          34.9259    22.4282    24.4355 H            1 BHN507   0.0000
    38 H10         36.4829    21.9981    24.1959 H            1 BHN507   0.0000
    39 H11         33.6551    22.3869    21.9504 H            1 BHN507   0.0000
    40 H12         33.3306    21.6735    23.3830 H            1 BHN507   0.0000
    41 H13         32.0961    19.6403    23.4437 H            1 BHN507   0.0000
    42 H14         30.9671    17.8806    22.2810 H            1 BHN507   0.0000
    43 H15         31.2110    17.6329    19.9242 H            1 BHN507   0.0000
    44 H16         32.6769    19.1056    18.7355 H            1 BHN507   0.0000
    45 H17         34.1137    20.9167    18.6935 H            1 BHN507   0.0000
    46 H18         38.2477    22.8164    23.1982 H            1 BHN507   0.0000
    47 H19         38.5292    24.3916    22.8725 H            1 BHN507   0.0000
    48 H20         34.8947    19.3436    22.8685 H            1 BHN507   0.0000
    49 H21         35.3573    20.0296    24.2764 H            1 BHN507   0.0000
@<TRIPOS>BOND
     1    1    2      ar
     2    1    6      ar
     3    1    8       1
     4    2    3      ar
     5    3    4      ar
     6    4    5      ar
     7    5    6      ar
     8    6    7       1
     9    8    9       1
    10    9   10       1
    11    9   21       1
    12   10   11       1
    13   11   12       1
    14   12   13       1
    15   12   24       1
    16   13   14       1
    17   14   15      ar
    18   14   19      ar
    19   15   16      ar
    20   16   17      ar
    21   17   18      ar
    22   18   19      ar
    23   19   20       1
    24   21   22       1
    25   22   23      ar
    26   22   25      ar
    27   24   26       1
    28   26   27      ar
    29   26   28      ar
    30    2   29       1
    31    3   30       1
    32    4   31       1
    33    5   32       1
    34   24   49       1
    35    8   33       1
    36    8   34       1
    37   10   35       1
    38   10   36       1
    39   11   37       1
    40   11   38       1
    41   13   39       1
    42   13   40       1
    43   15   41       1
    44   16   42       1
    45   17   43       1
    46   18   44       1
    47   20   45       1
    48   21   46       1
    49   21   47       1
    50   24   48       1
@<TRIPOS>SUBSTRUCTURE
     1 BHN507      1 GROUP             4 B     BHN     0 **** BHN B 507
