@<TRIPOS>MOLECULE
3fqj_GDP_1_ligand
   40    42     1     0     0
SMALL
NO_CHARGES


@<TRIPOS>ATOM
     1 PB          -5.3320   -22.5250    18.9950 P.3          1 GDP1001   0.0000
     2 O1B         -5.5960   -21.2540    19.7680 O.co2        1 GDP1001   0.0000
     3 O2B         -4.0790   -22.3200    18.1840 O.co2        1 GDP1001  -1.0000
     4 O3B         -6.5060   -22.8840    18.1170 O.co2        1 GDP1001  -1.0000
     5 O3A         -5.1120   -23.7970    19.9540 O.3          1 GDP1001   0.0000
     6 PA          -4.8560   -23.7210    21.5320 P.3          1 GDP1001   0.0000
     7 O1A         -6.1780   -23.7300    22.2350 O.co2        1 GDP1001   0.0000
     8 O2A         -3.9950   -22.5510    21.9140 O.co2        1 GDP1001  -1.0000
     9 O5'         -4.1170   -25.1150    21.7810 O.3          1 GDP1001   0.0000
    10 C5'         -3.8010   -25.5900    23.0830 C.3          1 GDP1001   0.0000
    11 C4'         -3.1650   -26.9720    22.9560 C.3          1 GDP1001   0.0000
    12 O4'         -4.0230   -27.8350    22.2150 O.3          1 GDP1001   0.0000
    13 C3'         -1.8280   -26.9520    22.2320 C.3          1 GDP1001   0.0000
    14 O3'         -0.9480   -27.8520    22.9140 O.3          1 GDP1001   0.0000
    15 C2'         -2.1160   -27.4730    20.8400 C.3          1 GDP1001   0.0000
    16 O2'         -1.0530   -28.2830    20.3240 O.3          1 GDP1001   0.0000
    17 C1'         -3.3820   -28.2900    21.0240 C.3          1 GDP1001   0.0000
    18 N9          -4.3130   -28.0930    19.8930 N.pl3        1 GDP1001   0.0000
    19 C8          -4.8450   -26.9300    19.4650 C.2          1 GDP1001   0.0000
    20 N7          -5.6690   -27.1310    18.4070 N.2          1 GDP1001   0.0000
    21 C5          -5.6770   -28.4560    18.1520 C.2          1 GDP1001   0.0000
    22 C6          -6.3340   -29.3630    17.1700 C.2          1 GDP1001   0.0000
    23 O6          -7.1130   -28.9080    16.2930 O.2          1 GDP1001   0.0000
    24 N1          -6.0590   -30.6830    17.2620 N.2          1 GDP1001   0.0000
    25 C2          -5.2240   -31.2000    18.1990 C.2          1 GDP1001   0.0000
    26 N2          -4.9950   -32.5380    18.2240 N.pl3        1 GDP1001   0.0000
    27 N3          -4.5940   -30.4280    19.1240 N.pl3        1 GDP1001   0.0000
    28 C4          -4.7800   -29.0840    19.1410 C.2          1 GDP1001   0.0000
    29 H5'1        -4.6354   -25.6521    23.6307 H            1 GDP1001   0.0000
    30 H5'2        -3.1589   -24.9628    23.5238 H            1 GDP1001   0.0000
    31 H4'         -3.0328   -27.3535    23.8709 H            1 GDP1001   0.0000
    32 H3'         -1.4472   -26.0278    22.2008 H            1 GDP1001   0.0000
    33 H5          -0.4529   -27.3570    23.6281 H            1 GDP1001   0.0000
    34 H2'         -2.2921   -26.7081    20.2204 H            1 GDP1001   0.0000
    35 H7          -1.0242   -28.2001    19.3279 H            1 GDP1001   0.0000
    36 H1'         -3.1519   -29.2593    21.1104 H            1 GDP1001   0.0000
    37 H9          -4.6566   -26.0371    19.8740 H            1 GDP1001   0.0000
    38 H10         -4.3813   -32.9275    18.9108 H            1 GDP1001   0.0000
    39 H11         -5.4400   -33.1340    17.5556 H            1 GDP1001   0.0000
    40 H12         -3.9890   -30.8538    19.7968 H            1 GDP1001   0.0000
@<TRIPOS>BOND
     1    1    2      ar
     2    1    3      ar
     3    1    4      ar
     4    1    5       1
     5    5    6       1
     6    6    7      ar
     7    6    8      ar
     8    6    9       1
     9    9   10       1
    10   10   11       1
    11   11   12       1
    12   11   13       1
    13   12   17       1
    14   13   14       1
    15   13   15       1
    16   15   16       1
    17   15   17       1
    18   17   18       1
    19   18   19       1
    20   18   28       1
    21   19   20       2
    22   20   21       1
    23   21   22       1
    24   21   28       2
    25   22   23       2
    26   22   24       1
    27   24   25       2
    28   25   26       1
    29   25   27       1
    30   27   28       1
    31   26   39       1
    32   26   38       1
    33   19   37       1
    34   10   29       1
    35   10   30       1
    36   11   31       1
    37   13   32       1
    38   14   33       1
    39   15   34       1
    40   16   35       1
    41   17   36       1
    42   27   40       1
@<TRIPOS>SUBSTRUCTURE
     1 GDP1001     1 GROUP             4 A     GDP     0 **** GDP A1001
