@<TRIPOS>MOLECULE
1mz9_VDY_2_ligand
   73    75     1     0     0
SMALL
NO_CHARGES


@<TRIPOS>ATOM
     1 O1           2.4730    -0.8680    11.2430 O.3          1 VDY1001   0.0000
     2 O2          11.8680    -0.0940    -2.8090 O.3          1 VDY1001   0.0000
     3 C1           0.7040     1.2690     9.6320 C.3          1 VDY1001   0.0000
     4 C2           0.3380     0.1270    10.5120 C.3          1 VDY1001   0.0000
     5 C3           1.2940    -1.1450    10.5050 C.3          1 VDY1001   0.0000
     6 C4           1.6790    -1.5470     9.0800 C.3          1 VDY1001   0.0000
     7 C5           2.0760    -0.3420     8.1760 C.2          1 VDY1001   0.0000
     8 C6           3.2270    -0.3460     7.4520 C.2          1 VDY1001   0.0000
     9 C7           4.0270     0.5040     6.5120 C.2          1 VDY1001   0.0000
    10 C8           5.2420     0.0800     6.0120 C.2          1 VDY1001   0.0000
    11 C9           5.7900    -1.3440     6.4810 C.3          1 VDY1001   0.0000
    12 C10          0.9970     0.7420     8.2250 C.2          1 VDY1001   0.0000
    13 C11          6.8690    -1.8980     5.6610 C.3          1 VDY1001   0.0000
    14 C12          6.9060    -1.5730     4.1170 C.3          1 VDY1001   0.0000
    15 C13          6.5880    -0.1310     3.7260 C.3          1 VDY1001   0.0000
    16 C14          6.2930     0.7260     5.0200 C.3          1 VDY1001   0.0000
    17 C15          5.9780     2.1540     4.4050 C.3          1 VDY1001   0.0000
    18 C16          6.9470     2.2510     3.1140 C.3          1 VDY1001   0.0000
    19 C17          7.7410     0.8890     3.1210 C.3          1 VDY1001   0.0000
    20 C18          5.3200    -0.2470     2.7770 C.3          1 VDY1001   0.0000
    21 C19          0.3780     1.1780     7.2120 C.2          1 VDY1001   0.0000
    22 C20          8.4050     0.4670     1.6720 C.3          1 VDY1001   0.0000
    23 C21          9.1510    -0.8470     1.8490 C.3          1 VDY1001   0.0000
    24 C22          9.5030     1.3650     1.0080 C.3          1 VDY1001   0.0000
    25 C23          9.9420     0.6850    -0.4450 C.3          1 VDY1001   0.0000
    26 C24         11.3590     1.2870    -0.5180 C.3          1 VDY1001   0.0000
    27 C25         12.3180     1.0130    -1.6960 C.3          1 VDY1001   0.0000
    28 C26         12.3280     2.3790    -2.0360 C.3          1 VDY1001   0.0000
    29 C27         13.7450     0.9230    -1.7410 C.3          1 VDY1001   0.0000
    30 H1           2.6827     0.1079    11.1823 H            1 VDY1001   0.0000
    31 H2          12.5776    -0.1698    -3.5095 H            1 VDY1001   0.0000
    32 H3           1.5167     1.7247     9.9951 H            1 VDY1001   0.0000
    33 H4          -0.0544     1.9198     9.5948 H            1 VDY1001   0.0000
    34 H5          -0.5728    -0.1819    10.2379 H            1 VDY1001   0.0000
    35 H6           0.3049     0.4711    11.4503 H            1 VDY1001   0.0000
    36 H7           0.8158    -1.9096    10.9372 H            1 VDY1001   0.0000
    37 H8           0.8991    -2.0124     8.6615 H            1 VDY1001   0.0000
    38 H9           2.4555    -2.1752     9.1279 H            1 VDY1001   0.0000
    39 H10          3.7028    -1.2136     7.5962 H            1 VDY1001   0.0000
    40 H11          3.6726     1.3989     6.2407 H            1 VDY1001   0.0000
    41 H12          5.0266    -1.9897     6.4650 H            1 VDY1001   0.0000
    42 H13          6.1291    -1.2519     7.4172 H            1 VDY1001   0.0000
    43 H14          6.8219    -2.8930     5.7492 H            1 VDY1001   0.0000
    44 H15          7.7298    -1.5693     6.0496 H            1 VDY1001   0.0000
    45 H16          6.2406    -2.1663     3.6639 H            1 VDY1001   0.0000
    46 H17          7.8241    -1.7850     3.7821 H            1 VDY1001   0.0000
    47 H18          7.1553     0.8068     5.5199 H            1 VDY1001   0.0000
    48 H19          6.1888     2.8777     5.0621 H            1 VDY1001   0.0000
    49 H20          5.0177     2.2195     4.1337 H            1 VDY1001   0.0000
    50 H21          7.5728     3.0265     3.1980 H            1 VDY1001   0.0000
    51 H22          6.4111     2.3445     2.2749 H            1 VDY1001   0.0000
    52 H23          8.4780     0.9607     3.7931 H            1 VDY1001   0.0000
    53 H24          5.0457     0.6657     2.4742 H            1 VDY1001   0.0000
    54 H25          5.5494    -0.8073     1.9811 H            1 VDY1001   0.0000
    55 H26          4.5664    -0.6724     3.2781 H            1 VDY1001   0.0000
    56 H27          0.5886     0.8167     6.3036 H            1 VDY1001   0.0000
    57 H28         -0.3220     1.8840     7.3194 H            1 VDY1001   0.0000
    58 H29          7.6666     0.3272     1.0123 H            1 VDY1001   0.0000
    59 H30          9.5605    -1.1178     0.9778 H            1 VDY1001   0.0000
    60 H31          9.8703    -0.7322     2.5341 H            1 VDY1001   0.0000
    61 H32          8.5125    -1.5547     2.1514 H            1 VDY1001   0.0000
    62 H33         10.3008     1.4201     1.6083 H            1 VDY1001   0.0000
    63 H34          9.1383     2.2832     0.8532 H            1 VDY1001   0.0000
    64 H35          9.3594     0.9868    -1.1996 H            1 VDY1001   0.0000
    65 H36          9.9528    -0.3144    -0.4113 H            1 VDY1001   0.0000
    66 H37         11.8349     0.9771     0.3051 H            1 VDY1001   0.0000
    67 H38         11.2411     2.2793    -0.4812 H            1 VDY1001   0.0000
    68 H39         12.6256     2.9167    -1.2471 H            1 VDY1001   0.0000
    69 H40         12.9582     2.5282    -2.7980 H            1 VDY1001   0.0000
    70 H41         11.4073     2.6624    -2.3044 H            1 VDY1001   0.0000
    71 H42         14.1405     1.5686    -1.0877 H            1 VDY1001   0.0000
    72 H43         14.0280    -0.0064    -1.5041 H            1 VDY1001   0.0000
    73 H44         14.0640     1.1438    -2.6627 H            1 VDY1001   0.0000
@<TRIPOS>BOND
     1    1    5       1
     2    2   27       1
     3    3    4       1
     4    3   12       1
     5    4    5       1
     6    5    6       1
     7    6    7       1
     8    7    8       2
     9    7   12       1
    10    8    9       1
    11    9   10       2
    12   10   11       1
    13   10   16       1
    14   11   13       1
    15   12   21       2
    16   13   14       1
    17   14   15       1
    18   15   16       1
    19   15   19       1
    20   15   20       1
    21   16   17       1
    22   17   18       1
    23   18   19       1
    24   19   22       1
    25   22   23       1
    26   22   24       1
    27   24   25       1
    28   25   26       1
    29   26   27       1
    30   27   28       1
    31   27   29       1
    32    1   30       1
    33    2   31       1
    34    3   32       1
    35    3   33       1
    36    4   34       1
    37    4   35       1
    38    5   36       1
    39    6   37       1
    40    6   38       1
    41    8   39       1
    42    9   40       1
    43   11   41       1
    44   11   42       1
    45   13   43       1
    46   13   44       1
    47   14   45       1
    48   14   46       1
    49   16   47       1
    50   17   48       1
    51   17   49       1
    52   18   50       1
    53   18   51       1
    54   19   52       1
    55   20   53       1
    56   20   54       1
    57   20   55       1
    58   21   56       1
    59   21   57       1
    60   22   58       1
    61   23   59       1
    62   23   60       1
    63   23   61       1
    64   24   62       1
    65   24   63       1
    66   25   64       1
    67   25   65       1
    68   26   66       1
    69   26   67       1
    70   28   68       1
    71   28   69       1
    72   28   70       1
    73   29   71       1
    74   29   72       1
    75   29   73       1
@<TRIPOS>SUBSTRUCTURE
     1 VDY1001     1 GROUP             4 D     VDY     0 **** VDY D1001
