@<TRIPOS>MOLECULE
3b6p_TMP_3_ligand
   34    35     1     0     0
SMALL
NO_CHARGES


@<TRIPOS>ATOM
     1 P           56.7870    -5.1990    -3.5910 P.3          1 TMP1000   0.0000
     2 O1P         57.6010    -6.4290    -3.2700 O.co2        1 TMP1000   0.0000
     3 O2P         55.8820    -5.2400    -4.7960 O.co2        1 TMP1000  -1.0000
     4 O3P         55.9590    -4.8800    -2.4060 O.co2        1 TMP1000  -1.0000
     5 O5'         57.8340    -3.9970    -3.8360 O.3          1 TMP1000   0.0000
     6 C5'         57.4380    -2.6340    -3.6810 C.3          1 TMP1000   0.0000
     7 C4'         57.8280    -1.7950    -4.8950 C.3          1 TMP1000   0.0000
     8 O4'         59.2120    -1.9650    -5.2270 O.3          1 TMP1000   0.0000
     9 C3'         57.0460    -2.1530    -6.1480 C.3          1 TMP1000   0.0000
    10 O3'         55.8640    -1.3640    -6.2730 O.3          1 TMP1000   0.0000
    11 C2'         58.0080    -1.8430    -7.2770 C.3          1 TMP1000   0.0000
    12 C1'         59.3900    -1.9930    -6.6510 C.3          1 TMP1000   0.0000
    13 N1          59.9830    -3.2640    -7.1100 N.pl3        1 TMP1000   0.0000
    14 C2          60.6280    -3.3210    -8.3780 C.2          1 TMP1000   0.0000
    15 O2          60.6990    -2.2960    -9.0950 O.2          1 TMP1000   0.0000
    16 N3          61.1710    -4.4630    -8.8330 N.pl3        1 TMP1000   0.0000
    17 C4          61.1250    -5.5900    -8.1100 C.2          1 TMP1000   0.0000
    18 O4          61.6390    -6.6400    -8.5540 O.2          1 TMP1000   0.0000
    19 C5          60.4550    -5.5670    -6.7800 C.2          1 TMP1000   0.0000
    20 C5M         60.3690    -6.8010    -5.9190 C.3          1 TMP1000   0.0000
    21 C6          59.9050    -4.3680    -6.3430 C.2          1 TMP1000   0.0000
    22 H5'1        57.8834    -2.2568    -2.8690 H            1 TMP1000   0.0000
    23 H5'2        56.4455    -2.5954    -3.5650 H            1 TMP1000   0.0000
    24 H4'         57.6667    -0.8313    -4.6823 H            1 TMP1000   0.0000
    25 H3'         56.8150    -3.1259    -6.1465 H            1 TMP1000   0.0000
    26 H5          55.1045    -1.8266    -5.8157 H            1 TMP1000   0.0000
    27 H2'1        57.8710    -0.9110    -7.6126 H            1 TMP1000   0.0000
    28 H2'2        57.8890    -2.4895    -8.0306 H            1 TMP1000   0.0000
    29 H1'         59.9714    -1.2296    -6.9324 H            1 TMP1000   0.0000
    30 H9          61.6176    -4.4717    -9.7277 H            1 TMP1000   0.0000
    31 H5M1        59.8854    -6.5830    -5.0713 H            1 TMP1000   0.0000
    32 H5M2        59.8734    -7.5168    -6.4109 H            1 TMP1000   0.0000
    33 H5M3        61.2912    -7.1220    -5.7035 H            1 TMP1000   0.0000
    34 H13         59.4488    -4.3248    -5.4542 H            1 TMP1000   0.0000
@<TRIPOS>BOND
     1    1    2      ar
     2    1    3      ar
     3    1    4      ar
     4    1    5       1
     5    5    6       1
     6    6    7       1
     7    7    8       1
     8    7    9       1
     9    8   12       1
    10    9   10       1
    11    9   11       1
    12   11   12       1
    13   12   13       1
    14   13   14       1
    15   13   21       1
    16   14   15       2
    17   14   16       1
    18   16   17       1
    19   17   18       2
    20   17   19       1
    21   19   20       1
    22   19   21       2
    23   21   34       1
    24   20   33       1
    25    6   22       1
    26    6   23       1
    27    7   24       1
    28    9   25       1
    29   10   26       1
    30   11   27       1
    31   11   28       1
    32   12   29       1
    33   16   30       1
    34   20   31       1
    35   20   32       1
@<TRIPOS>SUBSTRUCTURE
     1 TMP1000     1 GROUP             4 C     TMP     0 **** TMP C1000
