@<TRIPOS>MOLECULE
2xi3_GTP_2_ligand
   44    46     1     0     0
SMALL
NO_CHARGES


@<TRIPOS>ATOM
     1 PG           2.1860     1.6050    18.1090 P.3          1 GTP1002   0.0000
     2 O1G          1.2590     1.7110    16.9220 O.co2        1 GTP1002   0.0000
     3 O2G          2.5500     2.9880    18.5940 O.co2        1 GTP1002  -1.0000
     4 O3G          1.5080     0.8560    19.2310 O.co2        1 GTP1002  -1.0000
     5 O3B          3.5120     0.8070    17.6630 O.3          1 GTP1002   0.0000
     6 PB           4.0120     0.7870    16.1320 P.3          1 GTP1002   0.0000
     7 O1B          2.8960     0.2800    15.2500 O.co2        1 GTP1002   0.0000
     8 O2B          5.2540    -0.0590    15.9810 O.co2        1 GTP1002  -1.0000
     9 O3A          4.3110     2.3180    15.7380 O.3          1 GTP1002   0.0000
    10 PA           5.4080     3.1930    16.5240 P.3          1 GTP1002   0.0000
    11 O1A          4.9450     3.4620    17.9360 O.co2        1 GTP1002   0.0000
    12 O2A          5.6750     4.4820    15.7820 O.co2        1 GTP1002  -1.0000
    13 O5'          6.7310     2.2740    16.5610 O.3          1 GTP1002   0.0000
    14 C5'          7.6230     2.2240    15.4700 C.3          1 GTP1002   0.0000
    15 C4'          8.9950     1.8350    16.0090 C.3          1 GTP1002   0.0000
    16 O4'          9.0310     0.4880    16.4410 O.3          1 GTP1002   0.0000
    17 C3'         10.1150     1.9670    14.9950 C.3          1 GTP1002   0.0000
    18 O3'         10.6210     3.2850    14.9850 O.3          1 GTP1002   0.0000
    19 C2'         11.1430     0.9870    15.5170 C.3          1 GTP1002   0.0000
    20 O2'         12.0180     1.6810    16.3760 O.3          1 GTP1002   0.0000
    21 C1'         10.3510    -0.0150    16.3440 C.3          1 GTP1002   0.0000
    22 N9          10.2520    -1.3290    15.6950 N.pl3        1 GTP1002   0.0000
    23 C8          10.3890    -2.5510    16.3010 C.2          1 GTP1002   0.0000
    24 N7          10.2000    -3.5170    15.3720 N.2          1 GTP1002   0.0000
    25 C5           9.9330    -2.9190    14.1850 C.2          1 GTP1002   0.0000
    26 C6           9.6610    -3.4240    12.9230 C.2          1 GTP1002   0.0000
    27 O6           9.6400    -4.6420    12.7500 O.2          1 GTP1002   0.0000
    28 N1           9.4200    -2.5570    11.8710 N.pl3        1 GTP1002   0.0000
    29 C2           9.4500    -1.1910    12.0700 C.2          1 GTP1002   0.0000
    30 N2           9.2220    -0.3620    11.0480 N.pl3        1 GTP1002   0.0000
    31 N3           9.7180    -0.6950    13.3350 N.2          1 GTP1002   0.0000
    32 C4           9.9540    -1.5430    14.3720 C.2          1 GTP1002   0.0000
    33 H5'1         7.6721     3.1202    15.0291 H            1 GTP1002   0.0000
    34 H5'2         7.3121     1.5429    14.8071 H            1 GTP1002   0.0000
    35 H4'          9.2055     2.4228    16.7902 H            1 GTP1002   0.0000
    36 H3'          9.8016     1.7004    14.0836 H            1 GTP1002   0.0000
    37 H5          10.5053     3.6796    14.0734 H            1 GTP1002   0.0000
    38 H2'         11.6371     0.5399    14.7714 H            1 GTP1002   0.0000
    39 H7          12.0885     2.6339    16.0811 H            1 GTP1002   0.0000
    40 H1'         10.7540    -0.1079    17.2545 H            1 GTP1002   0.0000
    41 H9          10.5943    -2.7032    17.2678 H            1 GTP1002   0.0000
    42 H10          9.2229    -2.9223    10.9612 H            1 GTP1002   0.0000
    43 H11          9.2437     0.6273    11.1922 H            1 GTP1002   0.0000
    44 H12          9.0295    -0.7306    10.1386 H            1 GTP1002   0.0000
@<TRIPOS>BOND
     1    1    2      ar
     2    1    3      ar
     3    1    4      ar
     4    1    5       1
     5    5    6       1
     6    6    7      ar
     7    6    8      ar
     8    6    9       1
     9    9   10       1
    10   10   11      ar
    11   10   12      ar
    12   10   13       1
    13   13   14       1
    14   14   15       1
    15   15   16       1
    16   15   17       1
    17   16   21       1
    18   17   18       1
    19   17   19       1
    20   19   20       1
    21   19   21       1
    22   21   22       1
    23   22   23       1
    24   22   32       1
    25   23   24       2
    26   24   25       1
    27   25   26       1
    28   25   32       2
    29   26   27       2
    30   26   28       1
    31   28   29       1
    32   29   30       1
    33   29   31       2
    34   31   32       1
    35   30   44       1
    36   30   43       1
    37   28   42       1
    38   23   41       1
    39   14   33       1
    40   14   34       1
    41   15   35       1
    42   17   36       1
    43   18   37       1
    44   19   38       1
    45   20   39       1
    46   21   40       1
@<TRIPOS>SUBSTRUCTURE
     1 GTP1002     1 GROUP             4 A     GTP     0 **** GTP A1002
