@<TRIPOS>MOLECULE
1p1i_NAD_1_ligand
   70    74     1     0     0
SMALL
NO_CHARGES


@<TRIPOS>ATOM
     1 PA         -20.5390    44.5090     5.7680 P.3          1 NAD650   0.0000
     2 O1A        -19.8710    45.5990     5.0710 O.co2        1 NAD650   0.0000
     3 O2A        -21.3650    43.6830     4.8600 O.co2        1 NAD650  -1.0000
     4 O5B        -21.5820    44.9900     6.8410 O.3          1 NAD650   0.0000
     5 C5B        -21.4790    46.2860     7.4880 C.3          1 NAD650   0.0000
     6 C4B        -22.8710    46.8520     7.6060 C.3          1 NAD650   0.0000
     7 O4B        -22.7390    48.0740     8.3720 O.3          1 NAD650   0.0000
     8 C3B        -23.5240    47.2790     6.2620 C.3          1 NAD650   0.0000
     9 O3B        -24.8640    46.7680     6.1930 O.3          1 NAD650   0.0000
    10 C2B        -23.4260    48.8310     6.3160 C.3          1 NAD650   0.0000
    11 O2B        -24.5230    49.4880     5.6090 O.3          1 NAD650   0.0000
    12 C1B        -23.5500    49.0520     7.8250 C.3          1 NAD650   0.0000
    13 N9A        -23.0180    50.3160     8.2900 N.pl3        1 NAD650   0.0000
    14 C8A        -21.8530    50.9860     7.9590 C.2          1 NAD650   0.0000
    15 N7A        -21.5810    52.0570     8.7430 N.2          1 NAD650   0.0000
    16 C5A        -22.6970    52.0700     9.5860 C.ar         1 NAD650   0.0000
    17 C6A        -23.1130    52.9740    10.6670 C.ar         1 NAD650   0.0000
    18 N6A        -22.4050    54.0400    11.0540 N.pl3        1 NAD650   0.0000
    19 N1A        -24.3100    52.6760    11.3070 N.ar         1 NAD650   0.0000
    20 C2A        -25.0370    51.5260    10.9500 C.ar         1 NAD650   0.0000
    21 N3A        -24.7360    50.6510     9.9700 N.ar         1 NAD650   0.0000
    22 C4A        -23.5770    50.9900     9.3120 C.ar         1 NAD650   0.0000
    23 O3         -19.4720    43.7190     6.6120 O.3          1 NAD650   0.0000
    24 PN         -19.4760    42.5700     7.7540 P.3          1 NAD650   0.0000
    25 O1N        -18.8630    41.3770     7.0890 O.co2        1 NAD650   0.0000
    26 O2N        -20.8320    42.3610     8.3000 O.co2        1 NAD650  -1.0000
    27 O5D        -18.4270    43.1370     8.8080 O.3          1 NAD650   0.0000
    28 C5D        -18.7520    44.3210     9.5690 C.3          1 NAD650   0.0000
    29 C4D        -17.5230    44.7710    10.3620 C.3          1 NAD650   0.0000
    30 O4D        -17.1320    43.7440    11.3150 O.3          1 NAD650   0.0000
    31 C3D        -16.3130    45.2050     9.5410 C.3          1 NAD650   0.0000
    32 O3D        -16.2000    46.6350     9.3380 O.3          1 NAD650   0.0000
    33 C2D        -15.1050    44.5860    10.3140 C.3          1 NAD650   0.0000
    34 O2D        -14.2750    45.5990    10.9310 O.3          1 NAD650   0.0000
    35 C1D        -15.7240    43.6400    11.3340 C.3          1 NAD650   0.0000
    36 N1N        -15.2490    42.2390    11.2460 N.ar         1 NAD650   1.0000
    37 C2N        -15.9920    41.3390    10.4400 C.ar         1 NAD650   0.0000
    38 C3N        -15.6030    40.0010    10.3260 C.ar         1 NAD650   0.0000
    39 C7N        -16.3520    39.0690     9.3690 C.2          1 NAD650   0.0000
    40 O7N        -16.0950    37.8830     9.3700 O.2          1 NAD650   0.0000
    41 N7N        -17.2910    39.5400     8.5250 N.am         1 NAD650   0.0000
    42 C4N        -14.3520    39.5510    11.0070 C.ar         1 NAD650   0.0000
    43 C5N        -13.5650    40.5060    11.7810 C.ar         1 NAD650   0.0000
    44 C6N        -14.0150    41.8200    11.8890 C.ar         1 NAD650   0.0000
    45 H5B1       -20.9087    46.8965     6.9385 H            1 NAD650   0.0000
    46 H5B2       -21.0757    46.1816     8.3971 H            1 NAD650   0.0000
    47 H4B        -23.4648    46.2071     8.0871 H            1 NAD650   0.0000
    48 H3B        -22.9857    46.9297     5.4950 H            1 NAD650   0.0000
    49 H5         -25.4000    47.1342     6.9537 H            1 NAD650   0.0000
    50 H2B        -22.5397    49.1473     5.9779 H            1 NAD650   0.0000
    51 H7         -25.3935    49.2207     6.0224 H            1 NAD650   0.0000
    52 H1B        -24.4971    48.9348     8.1236 H            1 NAD650   0.0000
    53 H8A        -21.2613    50.7032     7.2041 H            1 NAD650   0.0000
    54 H6A1       -22.7395    54.6195    11.7972 H            1 NAD650   0.0000
    55 H6A2       -21.5409    54.2579    10.6003 H            1 NAD650   0.0000
    56 H2A        -25.8644    51.3378    11.4791 H            1 NAD650   0.0000
    57 H5D1       -19.4997    44.1164    10.2007 H            1 NAD650   0.0000
    58 H5D2       -19.0324    45.0512     8.9459 H            1 NAD650   0.0000
    59 H4D        -17.8046    45.5665    10.8985 H            1 NAD650   0.0000
    60 H3D        -16.3692    44.7653     8.6446 H            1 NAD650   0.0000
    61 H17        -16.9635    47.0971     9.7891 H            1 NAD650   0.0000
    62 H2D        -14.5483    44.0552     9.6750 H            1 NAD650   0.0000
    63 H19        -14.8216    46.1278    11.5803 H            1 NAD650   0.0000
    64 H1D        -15.4347    43.9737    12.2312 H            1 NAD650   0.0000
    65 H2N        -16.8005    41.6641     9.9494 H            1 NAD650   0.0000
    66 H7N1       -17.7682    38.9140     7.9083 H            1 NAD650   0.0000
    67 H7N2       -17.5106    40.5155     8.5154 H            1 NAD650   0.0000
    68 H4N        -14.0548    38.5991    10.9329 H            1 NAD650   0.0000
    69 H5N        -12.7162    40.2216    12.2267 H            1 NAD650   0.0000
    70 H6N        -13.4824    42.4829    12.4153 H            1 NAD650   0.0000
@<TRIPOS>BOND
     1    1    2      ar
     2    1    3      ar
     3    1    4       1
     4    1   23       1
     5    4    5       1
     6    5    6       1
     7    6    7       1
     8    6    8       1
     9    7   12       1
    10    8    9       1
    11    8   10       1
    12   10   11       1
    13   10   12       1
    14   12   13       1
    15   13   14       1
    16   13   22       1
    17   14   15       2
    18   15   16       1
    19   16   17      ar
    20   16   22      ar
    21   17   18       1
    22   17   19      ar
    23   19   20      ar
    24   20   21      ar
    25   21   22      ar
    26   23   24       1
    27   24   25      ar
    28   24   26      ar
    29   24   27       1
    30   27   28       1
    31   28   29       1
    32   29   30       1
    33   29   31       1
    34   30   35       1
    35   31   32       1
    36   31   33       1
    37   33   34       1
    38   33   35       1
    39   35   36       1
    40   36   37      ar
    41   36   44      ar
    42   37   38      ar
    43   38   39       1
    44   38   42      ar
    45   39   40       2
    46   39   41      am
    47   42   43      ar
    48   43   44      ar
    49   44   70       1
    50    5   45       1
    51    5   46       1
    52    6   47       1
    53    8   48       1
    54    9   49       1
    55   10   50       1
    56   11   51       1
    57   12   52       1
    58   14   53       1
    59   18   54       1
    60   18   55       1
    61   20   56       1
    62   43   69       1
    63   28   57       1
    64   28   58       1
    65   29   59       1
    66   31   60       1
    67   32   61       1
    68   33   62       1
    69   34   63       1
    70   35   64       1
    71   37   65       1
    72   41   66       1
    73   41   67       1
    74   42   68       1
@<TRIPOS>SUBSTRUCTURE
     1 NAD650      1 GROUP             4 A     NAD     0 **** NAD A 650
