@<TRIPOS>MOLECULE
4bqz_GNP_1_ligand
   45    47     1     0     0
SMALL
NO_CHARGES


@<TRIPOS>ATOM
     1 PG          20.3100    33.7580    23.2540 P.3          1 GNP1462   0.0000
     2 O1G         20.7590    32.9650    21.9870 O.co2        1 GNP1462   0.0000
     3 O2G         19.8490    32.7330    24.2890 O.co2        1 GNP1462  -1.0000
     4 PB          22.9910    35.0160    23.1760 P.3          1 GNP1462   0.0000
     5 O1B         23.1150    36.4820    23.6160 O.co2        1 GNP1462   0.0000
     6 O2B         22.9140    34.8620    21.6400 O.co2        1 GNP1462  -1.0000
     7 O3A         24.2330    34.2950    23.7580 O.3          1 GNP1462   0.0000
     8 PA          25.6960    34.1040    23.2320 P.3          1 GNP1462   0.0000
     9 O1A         25.7610    32.8590    22.4330 O.co2        1 GNP1462   0.0000
    10 O2A         26.2170    35.3350    22.6000 O.co2        1 GNP1462  -1.0000
    11 O5'         26.5620    33.8400    24.5130 O.3          1 GNP1462   0.0000
    12 C5'         26.2960    32.6310    25.2510 C.3          1 GNP1462   0.0000
    13 C4'         26.6150    32.7710    26.7370 C.3          1 GNP1462   0.0000
    14 O4'         28.0450    32.8880    26.7720 O.3          1 GNP1462   0.0000
    15 C3'         26.0940    34.0570    27.4310 C.3          1 GNP1462   0.0000
    16 O3'         25.7860    33.8260    28.8400 O.3          1 GNP1462   0.0000
    17 C2'         27.2400    35.0350    27.1470 C.3          1 GNP1462   0.0000
    18 O2'         27.3750    36.0520    28.0910 O.3          1 GNP1462   0.0000
    19 C1'         28.4550    34.1410    27.3360 C.3          1 GNP1462   0.0000
    20 N9          29.6810    34.5840    26.6680 N.pl3        1 GNP1462   0.0000
    21 C8          29.8330    35.3980    25.5480 C.2          1 GNP1462   0.0000
    22 N7          31.0720    35.5380    25.1710 N.2          1 GNP1462   0.0000
    23 C5          31.8060    34.7620    26.0940 C.2          1 GNP1462   0.0000
    24 C6          33.2070    34.4930    26.2310 C.2          1 GNP1462   0.0000
    25 O6          34.1320    34.9360    25.5690 O.2          1 GNP1462   0.0000
    26 N1          33.5640    33.6600    27.2740 N.2          1 GNP1462   0.0000
    27 C2          32.6210    33.0910    28.0910 C.2          1 GNP1462   0.0000
    28 N2          33.0850    32.2660    29.0470 N.pl3        1 GNP1462   0.0000
    29 N3          31.3030    33.3090    27.9970 N.pl3        1 GNP1462   0.0000
    30 C4          30.9600    34.1690    26.9900 C.2          1 GNP1462   0.0000
    31 O3G         19.1850    34.8120    23.0340 O.co2        1 GNP1462  -1.0000
    32 N3B         21.6700    34.3740    23.8690 N.3          1 GNP1462   0.0000
    33 H5'1        26.8549    31.8939    24.8711 H            1 GNP1462   0.0000
    34 H5'2        25.3280    32.4008    25.1511 H            1 GNP1462   0.0000
    35 H4'         26.3176    31.9578    27.2373 H            1 GNP1462   0.0000
    36 H3'         25.2691    34.3723    26.9618 H            1 GNP1462   0.0000
    37 H5          25.0474    34.4372    29.1243 H            1 GNP1462   0.0000
    38 H2'         27.1916    35.3994    26.2170 H            1 GNP1462   0.0000
    39 H7          28.1395    36.6441    27.8361 H            1 GNP1462   0.0000
    40 H1'         28.6326    34.0236    28.3131 H            1 GNP1462   0.0000
    41 H9          29.0648    35.8331    25.0784 H            1 GNP1462   0.0000
    42 H10         32.4474    31.8198    29.6750 H            1 GNP1462   0.0000
    43 H11         34.0675    32.0990    29.1296 H            1 GNP1462   0.0000
    44 H3B         21.3445    35.1032    24.4709 H            1 GNP1462   0.0000
    45 H13         30.6330    32.8834    28.6053 H            1 GNP1462   0.0000
@<TRIPOS>BOND
     1    1    2      ar
     2    1    3      ar
     3    1   31      ar
     4    1   32       1
     5    4    5      ar
     6    4    6      ar
     7    4    7       1
     8    4   32       1
     9    7    8       1
    10    8    9      ar
    11    8   10      ar
    12    8   11       1
    13   11   12       1
    14   12   13       1
    15   13   14       1
    16   13   15       1
    17   14   19       1
    18   15   16       1
    19   15   17       1
    20   17   18       1
    21   17   19       1
    22   19   20       1
    23   20   21       1
    24   20   30       1
    25   21   22       2
    26   22   23       1
    27   23   24       1
    28   23   30       2
    29   24   25       2
    30   24   26       1
    31   26   27       2
    32   27   28       1
    33   27   29       1
    34   29   30       1
    35   32   44       1
    36   28   43       1
    37   28   42       1
    38   21   41       1
    39   12   33       1
    40   12   34       1
    41   13   35       1
    42   15   36       1
    43   16   37       1
    44   17   38       1
    45   18   39       1
    46   19   40       1
    47   29   45       1
@<TRIPOS>SUBSTRUCTURE
     1 GNP1462     1 GROUP             4 A     GNP     0 **** GNP A1462
