@<TRIPOS>MOLECULE
4l36_IMD_1_ligand
    9     9     1     0     0
SMALL
NO_CHARGES


@<TRIPOS>ATOM
     1 N1         -77.3410   100.5740   -35.0060 N.2          1 IMD502   0.0000
     2 C2         -78.4980   101.1680   -34.6270 C.2          1 IMD502   0.0000
     3 N3         -78.8400   100.7060   -33.4010 N.pl3        1 IMD502   0.0000
     4 C4         -77.8920    99.8240   -33.0000 C.2          1 IMD502   0.0000
     5 C5         -76.9450    99.7410   -34.0160 C.2          1 IMD502   0.0000
     6 H1         -79.0136   101.8363   -35.1633 H            1 IMD502   0.0000
     7 H2         -77.8762    99.3249   -32.1336 H            1 IMD502   0.0000
     8 H3         -76.1234    99.1709   -34.0148 H            1 IMD502   0.0000
     9 H4         -79.6522   100.9701   -32.8809 H            1 IMD502   0.0000
@<TRIPOS>BOND
     1    1    2       2
     2    1    5       1
     3    2    3       1
     4    3    4       1
     5    4    5       2
     6    5    8       1
     7    2    6       1
     8    4    7       1
     9    3    9       1
@<TRIPOS>SUBSTRUCTURE
     1 IMD502      1 GROUP             4 A     IMD     0 **** IMD A 502
