@<TRIPOS>MOLECULE
1wma_AB3_1_ligand
   38    40     1     0     0
SMALL
NO_CHARGES


@<TRIPOS>ATOM
     1 C20         30.2490    18.4000    -0.0130 C.3          1 AB3307   0.0000
     2 C14         29.6280    17.2380    -0.7810 C.3          1 AB3307   0.0000
     3 C19         30.6630    16.1170    -1.1000 C.3          1 AB3307   0.0000
     4 C21         28.9710    17.7310    -2.0940 C.3          1 AB3307   0.0000
     5 N11         28.6180    16.6400     0.1260 N.pl3        1 AB3307   0.0000
     6 N15         28.4910    16.8900     1.3850 N.2          1 AB3307   0.0000
     7 C7          27.7260    15.6890    -0.2380 C.ar         1 AB3307   0.0000
     8 N3          27.4960    15.1200    -1.4620 N.ar         1 AB3307   0.0000
     9 C6          26.5270    14.2040    -1.5140 C.ar         1 AB3307   0.0000
    10 N5          25.7670    13.8320    -0.4600 N.ar         1 AB3307   0.0000
    11 C2          25.9760    14.3930     0.7420 C.ar         1 AB3307   0.0000
    12 N1          25.1310    14.0010     1.7340 N.pl3        1 AB3307   0.0000
    13 C4          26.9920    15.3560     0.9030 C.ar         1 AB3307   0.0000
    14 C13         27.5290    16.1410     1.9350 C.2          1 AB3307   0.0000
    15 C18         27.2140    16.2100     3.3150 C.ar         1 AB3307   0.0000
    16 C28         27.0720    15.0340     4.0560 C.ar         1 AB3307   0.0000
    17 C27         27.0360    17.4580     3.9700 C.ar         1 AB3307   0.0000
    18 C30         26.7000    17.4720     5.3260 C.ar         1 AB3307   0.0000
    19 C26         26.5620    16.2760     6.0450 C.ar         1 AB3307   0.0000
    20 C29         26.7510    15.0440     5.4200 C.ar         1 AB3307   0.0000
    21 O33         26.5940    13.8930     6.0770 O.3          1 AB3307   0.0000
    22 H1          29.5497    19.0915     0.1681 H            1 AB3307   0.0000
    23 H2          30.6201    18.0664     0.8536 H            1 AB3307   0.0000
    24 H3          30.9844    18.8041    -0.5570 H            1 AB3307   0.0000
    25 H4          30.2115    15.3795    -1.6022 H            1 AB3307   0.0000
    26 H5          31.4029    16.4950    -1.6565 H            1 AB3307   0.0000
    27 H6          31.0387    15.7573    -0.2459 H            1 AB3307   0.0000
    28 H7          28.5715    16.9533    -2.5793 H            1 AB3307   0.0000
    29 H8          28.2539    18.3941    -1.8794 H            1 AB3307   0.0000
    30 H9          29.6634    18.1640    -2.6711 H            1 AB3307   0.0000
    31 H10         26.3509    13.7622    -2.3937 H            1 AB3307   0.0000
    32 H11         25.2305    14.3796     2.6542 H            1 AB3307   0.0000
    33 H12         24.4106    13.3343     1.5428 H            1 AB3307   0.0000
    34 H13         27.2039    14.1552     3.5973 H            1 AB3307   0.0000
    35 H14         27.1497    18.3149     3.4672 H            1 AB3307   0.0000
    36 H15         26.5561    18.3462     5.7898 H            1 AB3307   0.0000
    37 H16         26.3256    16.3070     7.0162 H            1 AB3307   0.0000
    38 H17         26.3649    13.9001     7.0504 H            1 AB3307   0.0000
@<TRIPOS>BOND
     1    1    2       1
     2    2    3       1
     3    2    4       1
     4    2    5       1
     5    5    6       1
     6    5    7       1
     7    6   14       2
     8    7    8      ar
     9    7   13      ar
    10    8    9      ar
    11    9   10      ar
    12   10   11      ar
    13   11   12       1
    14   11   13      ar
    15   13   14       1
    16   14   15       1
    17   15   16      ar
    18   15   17      ar
    19   16   20      ar
    20   17   18      ar
    21   18   19      ar
    22   19   20      ar
    23   20   21       1
    24    1   22       1
    25    1   23       1
    26    1   24       1
    27    3   25       1
    28    3   26       1
    29    3   27       1
    30    4   28       1
    31    4   29       1
    32    4   30       1
    33    9   31       1
    34   12   32       1
    35   12   33       1
    36   16   34       1
    37   17   35       1
    38   18   36       1
    39   19   37       1
    40   21   38       1
@<TRIPOS>SUBSTRUCTURE
     1 AB3307      1 GROUP             4 A     AB3     0 **** AB3 A 307
