@<TRIPOS>MOLECULE
1xnj_ADP_1_ligand
   39    41     1     0     0
SMALL
NO_CHARGES


@<TRIPOS>ATOM
     1 PB          13.2610    41.0150    71.8010 P.3          1 ADP2800   0.0000
     2 O1B         12.1080    41.7380    71.2800 O.co2        1 ADP2800   0.0000
     3 O2B         14.5110    41.2740    71.0500 O.co2        1 ADP2800  -1.0000
     4 O3B         13.6660    41.2820    73.2880 O.co2        1 ADP2800  -1.0000
     5 PA          13.7440    38.1900    71.4110 P.3          1 ADP2800   0.0000
     6 O1A         13.8990    38.2630    69.8850 O.co2        1 ADP2800   0.0000
     7 O2A         15.1840    38.1690    71.7830 O.co2        1 ADP2800  -1.0000
     8 O3A         12.8140    39.4500    71.7280 O.3          1 ADP2800   0.0000
     9 O5'         12.7400    36.9330    71.6910 O.3          1 ADP2800   0.0000
    10 C5'         11.4550    36.6420    71.1980 C.3          1 ADP2800   0.0000
    11 C4'         11.1840    35.1170    71.3800 C.3          1 ADP2800   0.0000
    12 O4'          9.9580    34.7330    70.8130 O.3          1 ADP2800   0.0000
    13 C3'         12.2520    34.2080    70.7830 C.3          1 ADP2800   0.0000
    14 O3'         12.6390    33.1550    71.6610 O.3          1 ADP2800   0.0000
    15 C2'         11.5680    33.6950    69.5300 C.3          1 ADP2800   0.0000
    16 O2'         12.0230    32.4450    69.1620 O.3          1 ADP2800   0.0000
    17 C1'         10.1320    33.6530    69.8990 C.3          1 ADP2800   0.0000
    18 N9           9.2600    33.7670    68.7350 N.pl3        1 ADP2800   0.0000
    19 C8           8.1120    33.0180    68.4970 C.2          1 ADP2800   0.0000
    20 N7           7.5900    33.4760    67.2860 N.2          1 ADP2800   0.0000
    21 C5           8.3560    34.5380    66.8140 C.ar         1 ADP2800   0.0000
    22 C6           8.2770    35.3240    65.6800 C.ar         1 ADP2800   0.0000
    23 N6           7.3590    35.1250    64.7750 N.pl3        1 ADP2800   0.0000
    24 N1           9.1890    36.2950    65.4970 N.ar         1 ADP2800   0.0000
    25 C2          10.2360    36.4790    66.3560 C.ar         1 ADP2800   0.0000
    26 N3          10.3530    35.7270    67.5160 N.ar         1 ADP2800   0.0000
    27 C4           9.3970    34.7570    67.7110 C.ar         1 ADP2800   0.0000
    28 H5'1        11.4049    36.8794    70.2279 H            1 ADP2800   0.0000
    29 H5'2        10.7726    37.1681    71.7055 H            1 ADP2800   0.0000
    30 H4'         11.1381    34.9302    72.3613 H            1 ADP2800   0.0000
    31 H3'         13.0541    34.7497    70.5318 H            1 ADP2800   0.0000
    32 H5          13.3385    32.5930    71.2195 H            1 ADP2800   0.0000
    33 H2'         11.7065    34.3409    68.7793 H            1 ADP2800   0.0000
    34 H7          11.5469    32.1472    68.3346 H            1 ADP2800   0.0000
    35 H1'          9.9397    32.7917    70.3693 H            1 ADP2800   0.0000
    36 H9           7.7359    32.2958    69.0775 H            1 ADP2800   0.0000
    37 H10          7.3228    35.7075    63.9630 H            1 ADP2800   0.0000
    38 H11          6.6914    34.3899    64.8932 H            1 ADP2800   0.0000
    39 H12         10.9297    37.1676    66.1447 H            1 ADP2800   0.0000
@<TRIPOS>BOND
     1    1    2      ar
     2    1    3      ar
     3    1    4      ar
     4    1    8       1
     5    5    6      ar
     6    5    7      ar
     7    5    8       1
     8    5    9       1
     9    9   10       1
    10   10   11       1
    11   11   12       1
    12   11   13       1
    13   12   17       1
    14   13   14       1
    15   13   15       1
    16   15   16       1
    17   15   17       1
    18   17   18       1
    19   18   19       1
    20   18   27       1
    21   19   20       2
    22   20   21       1
    23   21   22      ar
    24   21   27      ar
    25   22   23       1
    26   22   24      ar
    27   24   25      ar
    28   25   26      ar
    29   26   27      ar
    30   25   39       1
    31   23   38       1
    32   23   37       1
    33   10   28       1
    34   10   29       1
    35   11   30       1
    36   13   31       1
    37   14   32       1
    38   15   33       1
    39   16   34       1
    40   17   35       1
    41   19   36       1
@<TRIPOS>SUBSTRUCTURE
     1 ADP2800     1 GROUP             4 B     ADP     0 **** ADP B2800
